<configuration>
    <input>
        <net-file value="eskisehir_last_with_z.net.xml"/>
        <route-files value="random_routes.rou.xml"/>
        <additional-files value="vehicles.add.xml"/>
    </input>
</configuration>