<configuration>
    <input>
        <net-file value="eskisehir_last.net.xml"/>
        <route-files value="random_routes.rou.xml"/>
        <additional-files value="vehicles.add.xml"/>
    </input>
    
    <time>
        <begin value="0"/>
        <end value="1500"/>
    </time>

    <output>
        <fcd-output value="fcd_output.xml"/>
        <emission-output value="emission_output.xml"/>
    </output>

</configuration>