<?xml version="1.0" ?>
<routes>
  <vehicle id="veh1" depart="1.0" type="electric4">
    <param key="device.battery.chargeLevel" value="27203"/>
    <route edges="-212402311#1 212402297#4 212402395#0 212402330 -444292008#4 212682814#0 212682838#4 137614083#6 137614083#7 137614083#8 137614083#9 137614083#10 -212402292#6 -212402292#5 212402367#0 212402367#1 212402367#3 212402303#2 212402362#0 212402362#1 212402362#2 453772985#2 212402347#2 453772984 -212402403#7 -212402403#6 -212402403#5 -212402403#4 -212402403#3 -212402403#2 212402403#2"/>
  </vehicle>
  <vehicle id="veh2" depart="2.0" type="electric6">
    <param key="device.battery.chargeLevel" value="38270"/>
    <route edges="-453772985#2 -453772985#1 -212402394#1 -212402394#0 -138074615#2 -138074615#1 -138074615#0 460213970#9 460213970#10 460213970#0 460213970#1 460213970#2 460213970#3 -443957055#12 -443957055#11 212691506#0 212691506#1 212691506#2 212691506#3 212691506#4 -212691509#3 -212691489#0 -212691505#2 212691480#0 212691480#1 212691480#3 212691480#4 446514658#0 446514658#1 446514658#2 446514658#3 212402300#1"/>
  </vehicle>
  <vehicle id="veh3" depart="3.0" type="electric7">
    <param key="device.battery.chargeLevel" value="38722"/>
    <route edges="-138312728#0 138312728#0 138312727#0 205687669#0 205687669#1 205687669#2 205687662#0 205687669#4 205687669#6 212410134#2 -212410140#7 -212410140#6 -212410140#5 -212410104#8 -212410104#7 -212410104#6 -212410104#5 -212410104#3 -212410104#2 -659351466#3 -659351466#2 -659351466#1 212410149#0 212410149#1 212410149#2 212410149#3 -212410149#3 -212410149#2 -212410149#1"/>
  </vehicle>
  <vehicle id="veh4" depart="4.0" type="electric13">
    <param key="device.battery.chargeLevel" value="64106"/>
    <route edges="-212402387#0 -713157114#1 -713157114#0 452399911#1 -138074615#16 -138074615#15 -138074615#14 -138074615#13 -138074615#12 -138074615#11 -138074615#10 -138074615#9 -138074615#7 -138074615#5 -138074615#3 -138074615#2 -138074615#1 -138074615#0 460213970#9 460213970#10 460213970#0 460213970#1 460213970#2 460213970#3 -443957055#12 -443957055#11 -443957055#10 -443957055#9 -443957055#7 212691492 -1178560324 446514662#7"/>
  </vehicle>
  <vehicle id="veh5" depart="5.0" type="electric12">
    <param key="device.battery.chargeLevel" value="66591"/>
    <route edges="212410133#3 212410133#4 212410133#5 -212410102#5 -212410102#4 -212410102#3 263520336#5 263520336#6 263520336#7 263520336#8 -212402294#1 -212402294#0 -138074615#16 -138074615#15 -138074615#14"/>
  </vehicle>
  <vehicle id="veh6" depart="6.0" type="electric6">
    <param key="device.battery.chargeLevel" value="42883"/>
    <route edges="212402380#1 -212402380#1 -212402380#0 212402328#6 452647828#0 452647828#1 -212402354 212402398#1 -138074615#1 212402298#0 212402298#1 212402298#2 212402325#0 212402325#1 -452398496#0 452398495#0 452398495#1 452398495#2 452398495#3 -212706376#2 -212706376#1 -212706376#0 212706370#2 212706370#3 212706370#4 212709054#0 212709054#1 212709054#2 212709054#3 212709054#4 212709054#5 212709054#6 212709090#0 -212709086#1"/>
  </vehicle>
  <vehicle id="veh7" depart="7.0" type="electric5">
    <param key="device.battery.chargeLevel" value="36022"/>
    <route edges="-212402307#0 212402307#0 -212402323 E9 -212402327#7 -212402327#5 -212402380#1 -212402380#0 -212402328#4 -212402384#1 -212402384#0 452647829#0 452647829#2 138074615#5 138074615#7 -138074615#7"/>
  </vehicle>
  <vehicle id="veh8" depart="8.0" type="electric10">
    <param key="device.battery.chargeLevel" value="54600"/>
    <route edges="-212691470#2 -212691498#1 -212691498#0 212402300#2 446514652#0 446514652#1 446514652#2 446514652#3 446514652#4 446514652#5 446514652#6 453772980#0 453772980#1 453772980#2 453772980#3 460213970#3 460213970#4 460213970#5 460213970#6 460213970#7 460213970#8 138074615#0 138074615#1 138074615#2 138074615#3 138074615#5 138074615#7 138074615#9 138074615#10 138074615#11 138074615#12 138074615#13 138074615#14 138074615#15 138074615#16 -452399911#1 713157114#0 -713157113"/>
  </vehicle>
  <vehicle id="veh9" depart="9.0" type="electric17">
    <param key="device.battery.chargeLevel" value="82199"/>
    <route edges="212402333#0 -212402402#0 212402394#5 -212402367#3 -212402367#1 -212402367#0 212402292#5 212402292#6 -137614083#10 -137614083#9 -137614083#8 -137614083#7 -137614083#6 -212682838#4 -212682838#3 -212682838#2 -212682838#1 452398500#7 -212682791#1 -212682791#0 212682791#0"/>
  </vehicle>
  <vehicle id="veh10" depart="10.0" type="electric18">
    <param key="device.battery.chargeLevel" value="85372"/>
    <route edges="275157761#3 275157761#4 443957055#0 212701295#0 212701295#1 212701295#3 212701295#4 212701295#5 212701295#7 -212691477 212691495#3 212691495#5 212691478#2 212691478#3 212691478#4"/>
  </vehicle>
  <vehicle id="veh11" depart="11.0" type="electric10">
    <param key="device.battery.chargeLevel" value="50335"/>
    <route edges="212402322#2 212402322#3 212402322#4 212402322#5 -212402327#2 212402393#1 212402393#2 -460210278 212410102#3 212410102#4 212410102#5 659351468#0 659351468#1 659351468#2 659351468#3 659351468#4 -212410146#0 457106272#5 457106272#6 457106272#7 457106272#9 457106272#10 457106272#11 457106272#12 -212410136 -212410099#3 215013283 -215013283"/>
  </vehicle>
  <vehicle id="veh12" depart="12.0" type="electric13">
    <param key="device.battery.chargeLevel" value="67589"/>
    <route edges="452398500#7 -452398500#7 212682838#1 212682838#2 212682838#3 212682838#4 137614083#6 137614083#7 137614083#8 137614083#9 137614083#10 452398504#0 452398504#1 452398496#0 452398496#1 444293146#0 444293146#1 444293146#2 -212682839#2 -212682839#1 -212682839#0 -444292029#1 212682828#0 -138074595#5 212682793 212691492"/>
  </vehicle>
  <vehicle id="veh13" depart="13.0" type="electric8">
    <param key="device.battery.chargeLevel" value="42246"/>
    <route edges="-212402396#0 212402328#4 212402380#0 212402380#1 212402327#5 212402327#7 -E9 -E7 -212691505#4 -212691506#5 -212691506#4 -212691506#3"/>
  </vehicle>
  <vehicle id="veh14" depart="14.0" type="electric3">
    <param key="device.battery.chargeLevel" value="22206"/>
    <route edges="212706363#2 -444291978#2 -212706376#2 -212706376#1 -212706376#0 212706370#2 212706370#3 212706370#4 212709054#0 212709054#1 212709054#2 212709054#3 212709054#4 -212709054#4"/>
  </vehicle>
  <vehicle id="veh15" depart="15.0" type="electric7">
    <param key="device.battery.chargeLevel" value="45940"/>
    <route edges="-1177339958#0 1177339960#1 -212701284#1 -212701284#0 -212701277#1 -212701270#1 -212701288#0 446514662#9 443957055#4 443957055#5 443957055#7 443957055#9 443957055#10 443957055#11 443957055#12 460213970#4 460213970#5 460213970#6 460213970#7 460213970#8 138074615#0 138074615#1 138074615#2 138074615#3 138074615#5 138074615#7 138074615#9 -212402378#1 -212402378#0 713153658"/>
  </vehicle>
  <vehicle id="veh16" depart="16.0" type="electric8">
    <param key="device.battery.chargeLevel" value="44925"/>
    <route edges="-212691509#4 212691506#5 212691505#4 460213377#3 212402307#0 212402307#1 212402307#2 212402307#3 212402307#4 212402307#5 212402322#9 212402304#2 212402304#3 212402304#4"/>
  </vehicle>
  <vehicle id="veh17" depart="17.0" type="electric7">
    <param key="device.battery.chargeLevel" value="44173"/>
    <route edges="-446514663#0 446514663#0 446514663#2 -212402377#0 212402301#2 212402301#3 212402301#8 212410134#0 212410134#2 -212410140#7 -212410140#6 -212410140#5 -212410104#8 -212410104#7 -212410104#6 -212410104#5 -212410104#3 -212410104#2 -212410104#1 -212410104#0"/>
  </vehicle>
  <vehicle id="veh18" depart="18.0" type="electric13">
    <param key="device.battery.chargeLevel" value="62740"/>
    <route edges="-212402307#4 -212402307#3 -212402307#2 -212402307#1 -212402323 -E7 -212691505#4 -212691505#3 -212691505#2 -212691505#1 -212691505#0 446514662#7 446514662#8 446514662#9 -443957055#3 212682803#0 212682803#1 212682803#2 212682803#3 212682841#3 212682822#1"/>
  </vehicle>
  <vehicle id="veh19" depart="19.0" type="electric15">
    <param key="device.battery.chargeLevel" value="70557"/>
    <route edges="212706372#2 275157752#5 460215284#9 444291978#0 -452398495#3 -452398495#2 -452398495#1 212682836#1 -212682811 275157752#10 -452398496#1 -212402325#1 -212402325#0 -212402298#2 -212402298#1 -212402298#0 138074615#1 -212402398#1 212402354 -452647828#1 -452647828#0 -212402328#6 -212402328#4 -212402328#2 212402322#4 212402322#5 -212402327#2 212402393#1 212402393#2 -460210278 212410102#3 212410102#4 212410102#5 659351468#0 659351468#1 659351468#2 659351468#3 212410104#6"/>
  </vehicle>
  <vehicle id="veh20" depart="20.0" type="electric14">
    <param key="device.battery.chargeLevel" value="74096"/>
    <route edges="-212691471#1 -212691471#0 1178404910#0 212701279#1 -212701296#0 212701274#1 -212701280 212701292#2 212701292#3 -212701292#3"/>
  </vehicle>
  <vehicle id="veh21" depart="21.0" type="electric6">
    <param key="device.battery.chargeLevel" value="35129"/>
    <route edges="-212402358#1 -212402358#0 -212402393#4 -212402393#3 -212402393#2 -212402393#1 212402327#2 -212402327#2"/>
  </vehicle>
  <vehicle id="veh22" depart="22.0" type="electric1">
    <param key="device.battery.chargeLevel" value="18419"/>
    <route edges="-212402354 212402398#1 138074615#2 212402394#0 212402394#1 212402394#2 212402394#3 212402394#5 -212402367#3 -212402367#1 -212402367#0 212402292#5 212402292#6 -137614083#10 -137614083#9 -137614083#8 138074610#0 138074610#2 138074610#3 138074610#4 -212682834#6 -212682834#5 -212682823#1 -212682823#0 -444292000#5 -444292000#4 -444292000#3 -444292000#2 444292000#2"/>
  </vehicle>
  <vehicle id="veh23" depart="23.0" type="electric16">
    <param key="device.battery.chargeLevel" value="77579"/>
    <route edges="212701295#7 446514662#4 446514662#5 1178560324 -212691492 443957055#7 443957055#9 443957055#10 443957055#11 -444292033#1 -444292033#0 212682800#0 212682800#1 444292029#3 444292022#1 444292022#2 444292022#3 444292022#4 444292022#5 -452398496#1 -452398496#0 452398495#0 452398495#1 452398495#2 452398495#3 -212706376#2 -212706376#1 -212706376#0 212706370#2 212706370#3 212706370#4 212709054#0 212709054#1 212709054#2 212709079#0 443955352 -443955352"/>
  </vehicle>
  <vehicle id="veh24" depart="24.0" type="electric19">
    <param key="device.battery.chargeLevel" value="90676"/>
    <route edges="-212402371#0 -212402292#5 212402367#0 212402367#1 212402367#3 212402303#2 212402362#0 212402362#1 212402362#2 453772985#2 212402347#2 212402347#3 212402347#5 138074615#5 138074615#7 138074615#9 138074615#10 138074615#11 138074615#12 138074615#13 138074615#14 138074615#15 138074615#16 138074615#18 138074615#20 -460207321#0 460207322#0 460207322#2 212410116 659351467#1 -212410149#3"/>
  </vehicle>
  <vehicle id="veh25" depart="25.0" type="electric16">
    <param key="device.battery.chargeLevel" value="82892"/>
    <route edges="212402304#2 -212402304#2 -212402304#1 -212402396#4 -212402307#4 -212402307#3 -212402307#2 -212402307#1 -212402323 -E7 446514652#5 446514652#6 453772980#0 453772980#1 453772980#2 453772980#3 460213970#3 460213970#4 460213971#0 460213971#1 444292022#0 444292022#1 444292022#2 444292022#3 444292022#4 444292022#5 -452398496#1 -452398496#0 452398495#0 452398495#1 452398495#2 452398495#3 -212706376#2 -212706376#1 -212706376#0 212706370#2 212706370#3 212706370#4 212709054#0 212709054#1 212709054#2 212709054#3 212709054#4 212709054#5 212709054#6 212709065#3 -212709065#3"/>
  </vehicle>
  <vehicle id="veh26" depart="26.0" type="electric16">
    <param key="device.battery.chargeLevel" value="79619"/>
    <route edges="-212402301#0 212402301#0 -212402396#5 -212402396#4 -212402307#4 -212402307#3 -212402307#2 -212402307#1 -212402323 -E7 446514652#5 446514652#6 453772980#0 453772980#1 453772980#2 453772980#3 460213970#3 460213970#4 460213971#0 460213971#1 444292022#0 444292022#1 444292022#2 444292022#3 444292022#4 444292022#5 -452398496#1 -452398496#0 -452398504#1 -452398504#0 452398503#0 452398503#1 452398503#3 452398503#4 452398503#5 212682824#1"/>
  </vehicle>
  <vehicle id="veh27" depart="27.0" type="electric11">
    <param key="device.battery.chargeLevel" value="57853"/>
    <route edges="212682823#1 212682834#5 212682834#6 138074610#5 212682821#0 212682821#1 212682821#2 -452398503#3 212682794 212682836#0 212682836#1 -212682811 275157752#10 460214435#0 460214435#1 460214435#2 460214435#3 460213970#8 460213970#9 460213377#0 460213377#1 -212402302#6 212402302#6"/>
  </vehicle>
  <vehicle id="veh28" depart="28.0" type="electric16">
    <param key="device.battery.chargeLevel" value="81519"/>
    <route edges="659352991#4 -659351468#5 -659351468#4 -659351468#3 -659351468#2 -659351468#1 -659351468#0 -212410102#5 -212410102#4 -212410102#3 263520336#5 263520336#6 -460210276 212402327#1 212402327#2 -212402322#5 -212402322#4 212402328#2 212402328#4 212402328#6 452647828#0 452647828#1 -212402354 212402398#1 138074615#2 212402394#0 212402394#1 212402394#2 212402394#3 212402394#5 -212402367#3 -212402367#1 -212402367#0 212402292#5 212402292#6 -137614083#10 -137614083#9 -137614083#8 -137614083#7 -137614083#6 -212682838#4 -212682814#0 444292008#4 -137614083#2 -212682831#3 -212682831#2 -212682834#0"/>
  </vehicle>
  <vehicle id="veh29" depart="29.0" type="electric13">
    <param key="device.battery.chargeLevel" value="68646"/>
    <route edges="138074615#10 -138074615#10 -138074615#9 -138074615#7 -138074615#5 -212402347#5 -212402347#3 -212402347#2 -453772985#2 -212402362#2 -212402362#1 -212402362#0 -212402303#2 -212402367#3 -212402367#1 -212402367#0 212402292#5 212402292#6 -137614083#10 -137614083#9 -137614083#8 138074610#0 138074610#2 138074610#3 138074610#4 -212682834#6 -212682805#1 -212682805#0 212706333#0 -212706333#0"/>
  </vehicle>
  <vehicle id="veh30" depart="30.0" type="electric17">
    <param key="device.battery.chargeLevel" value="86341"/>
    <route edges="-452398501 -212682836#1 452398495#1 452398495#2 452398495#3 -212706376#2 -212706376#1 -212706376#0 212706370#2 212706370#3 212706370#4 212709054#0 212709054#1 212709054#2 212709054#3 212709054#4 212709054#5 212709054#6 212709065#3 212709065#4 -212709060"/>
  </vehicle>
  <vehicle id="veh31" depart="31.0" type="electric2">
    <param key="device.battery.chargeLevel" value="22756"/>
    <route edges="212706378#1 212706363#1 212706363#2 -452398503#6 -452398503#5 -452398503#4 -452398503#3 -452398503#1 -452398503#0 -212402292#6 -212402292#5 212402367#0 212402367#1 212402367#3 -212402394#5 -212402394#3 -212402394#2 -212402394#1 -212402394#0 -138074615#2 -212402398#1 212402354 -452647828#1 -452647828#0 -212402328#6 -212402328#4 -212402328#2 212402322#4 212402322#5 -212402327#2 212402393#1 212402393#2 212402393#3 212402393#4"/>
  </vehicle>
  <vehicle id="veh32" depart="32.0" type="electric17">
    <param key="device.battery.chargeLevel" value="83853"/>
    <route edges="-212706370#1 212706363#0 212706363#1 212706363#2 -452398503#6 -452398503#5 -452398503#4 -452398503#3 -452398503#1 -452398503#0 -212402292#6 -212402292#5 212402367#0 212402367#1 212402367#3 212402303#2 212402362#0 212402362#1 212402362#2 453772985#2 212402347#2 212402347#3 212402347#5 138074615#5 138074615#7 138074615#9 138074615#10 138074615#11 138074615#12 138074615#13 138074615#14 138074615#15 138074615#16 212402294#0 -212402382#2 212402382#2"/>
  </vehicle>
  <vehicle id="veh33" depart="33.0" type="electric2">
    <param key="device.battery.chargeLevel" value="25074"/>
    <route edges="-452398500#1 -452398503#4 -452398503#3 212682794 212682836#0 212682836#1 -212682811 275157752#10 460214435#0 460214435#1 460214435#2 460214435#3 460213970#8 460213970#9 460213377#0 460213377#1 460213377#2 460213377#3 212402307#0 212402307#1 212402307#2 212402307#3 212402307#4 212402307#5 212402322#9 212402304#2 212402304#3 212402314 212402301#3 212402301#8 212410134#0 212410134#2 212410134#3 212410134#4 212410125 457106348 659352991#0 212410120"/>
  </vehicle>
  <vehicle id="veh34" depart="34.0" type="electric9">
    <param key="device.battery.chargeLevel" value="50893"/>
    <route edges="212402298#1 -212402298#1 -212402298#0 138074615#1 -212402398#1 212402354 -452647828#1 -452647828#0 -212402328#6 -212402328#4 212402396#0 212402396#1 212402396#2 212402310#6 212402322#7 212402322#8 -212402322#8"/>
  </vehicle>
  <vehicle id="veh35" depart="35.0" type="electric7">
    <param key="device.battery.chargeLevel" value="38420"/>
    <route edges="-444292008#1 444292008#1 212682834#2 212682834#3 212682838#2 212682838#3 212682838#4 137614083#6 137614083#7 137614083#8 137614083#9 137614083#10 -212402292#6 -212402292#5 212402367#0 212402367#1 212402367#3 -212402394#5 -212402394#3 -212402394#2 -212402394#1 -212402394#0 -138074615#2 -212402398#1 212402354 -452647828#1 -452647828#0"/>
  </vehicle>
  <vehicle id="veh36" depart="36.0" type="electric20">
    <param key="device.battery.chargeLevel" value="90485"/>
    <route edges="212402297#5 137614083#2 -444292008#4 212682814#0 212682838#4 137614083#6 137614083#7 137614083#8 137614083#9 137614083#10 452398504#0 452398504#1 452398496#0 452398496#1 444293146#0 444293146#1 444293146#2 -212682837#3 -212682837#2 -444293148#2 212682790#2 212682841#0 212682841#2 -212682841#2"/>
  </vehicle>
  <vehicle id="veh37" depart="37.0" type="electric16">
    <param key="device.battery.chargeLevel" value="75951"/>
    <route edges="212709054#0 -212709054#0 -212706370#4 -212706370#3 275157752#3 275157752#4 275157752#5 460215284#9 444291978#0 -444291978#0 235445423#0 235445423#1 235445423#2 235445423#3 235445423#4 235445423#5 235445423#6 -444293150#1 212682782#0 212682782#1 444293147#1 444293149 444292031"/>
  </vehicle>
  <vehicle id="veh38" depart="38.0" type="electric17">
    <param key="device.battery.chargeLevel" value="84743"/>
    <route edges="212709090#0 -212709090#0 -212709054#6 -212709054#5 -212709054#4 -212709054#3 -212709054#2 -212709054#1 -212709054#0 -212706370#4 -212706370#3 275157752#3 275157752#4 275157752#5 460215284#9 444291978#0 -444291978#0 235445423#0 235445423#1 235445423#2 235445423#3 235445423#4 235445423#5 235445423#6 -444293150#1 212682782#0 212682782#1 444293147#1 444293149 444292031 444292035 212682793 212691492 212691509#1 212691509#2 -212691489#0 212691505#3 212691505#4 460213377#3 212402307#0 212402307#1 212402307#2 212402307#3 212402307#4 212402307#5 212402322#9 212402304#2 212402304#3 212402314 212402301#3 212402301#8 212410134#0 -205687669#6 -205687669#4 -205687662#0 -205687669#2 -205687669#1 205687665#0"/>
  </vehicle>
  <vehicle id="veh39" depart="39.0" type="electric19">
    <param key="device.battery.chargeLevel" value="92469"/>
    <route edges="212682838#4 137614083#6 137614083#7 138074610#0 138074610#2 138074610#3 138074610#4 138074610#5 138074610#6 138074610#7 -444291978#5 -444291978#4 -444291978#2 -212706376#2 212706372#2 -212706372#2"/>
  </vehicle>
  <vehicle id="veh40" depart="40.0" type="electric1">
    <param key="device.battery.chargeLevel" value="18333"/>
    <route edges="212691505#4 -212691505#4 -212691505#3 212691489#0 -212691509#2 -212691509#1 -212691492 -212682793 -444292035 444292035"/>
  </vehicle>
  <vehicle id="veh41" depart="41.0" type="electric13">
    <param key="device.battery.chargeLevel" value="68166"/>
    <route edges="-212410109 -457106272#2 -212410118 212410146#2 -212410131 212410104#8 -212410140#4 -212410140#3 -212410140#2 212410111 212410133#4 212410133#5 -212410102#5 -212410102#4 -212410102#3 263520336#5 263520336#6 -460210276 212402327#1 212402327#2 212402327#3 212402327#4 212402327#5 212402327#7 -E9 -E7 -212691505#4 -212691505#3 212691489#0 -212691509#2 -212691509#1 -212691492 -212682793 -444292035 -444292031 -444293149 444293149"/>
  </vehicle>
  <vehicle id="veh42" depart="42.0" type="electric1">
    <param key="device.battery.chargeLevel" value="20572"/>
    <route edges="453772972#1 453772972#2 -138074615#5 -138074615#3 -138074615#2 -138074615#1 -138074615#0 460213970#9 460213970#10 460213970#0 460213970#1 460213970#2 460213970#3 -443957055#12 -443957055#11 212691506#0 212691506#1 212691506#2 212691506#3 212691506#4 -212691509#3 -212691489#0 -212691505#2 212691480#0"/>
  </vehicle>
  <vehicle id="veh43" depart="43.0" type="electric18">
    <param key="device.battery.chargeLevel" value="91102"/>
    <route edges="-444292029#1 -444292029#0 -444292031 -444293149 -444293147#1 212682841#0"/>
  </vehicle>
  <vehicle id="veh44" depart="44.0" type="electric7">
    <param key="device.battery.chargeLevel" value="44785"/>
    <route edges="452398495#3 -452398495#3 -452398495#2 -452398495#1 212682836#1 -212682811 275157752#10 -452398496#1 -212402325#1 -212402325#0 -212402298#2 -212402313 453772985#0 453772985#1 453772985#2 212402347#2 212402347#3 212402347#5 138074615#5 138074615#7 138074615#9 138074615#10 138074615#11 138074615#12 138074615#13 138074615#14 138074615#15 138074615#16 138074615#18 138074615#20 -460207321#0 460207322#0 460207322#2 212410116 659351467#1 659351467#2 659351467#3 212410104#0 212410104#1"/>
  </vehicle>
  <vehicle id="veh45" depart="45.0" type="electric11">
    <param key="device.battery.chargeLevel" value="54352"/>
    <route edges="-212402307#4 -212402307#3 -212402307#2 -212402307#1 -212402323 -E7 -212691505#4 -212691505#3 -212691505#2 -212691505#1 -212691505#0 446514662#7 446514662#8 446514662#9 -443957055#3 212682803#0 212682803#1 212682803#2 212682803#3"/>
  </vehicle>
  <vehicle id="veh46" depart="46.0" type="electric17">
    <param key="device.battery.chargeLevel" value="81772"/>
    <route edges="-212682803#1 138074595#4 138074595#5 -212682828#0 444292029#1 444292029#2 444292029#3 444292022#1 444292022#2 444292022#3 444292022#4 444292022#5 -452398496#1 -452398496#0 -452398504#1 -452398504#0 -137614083#10 -137614083#9 -137614083#8 138074610#0 138074610#2 138074610#3 138074610#4 -212682834#6 -212682805#1 -212682805#0 212706333#0 212706333#1 212706360#0 212706360#1 -212706356#0 444291998#0 444291998#1 -444291998#1"/>
  </vehicle>
  <vehicle id="veh47" depart="47.0" type="electric7">
    <param key="device.battery.chargeLevel" value="42396"/>
    <route edges="212682783#0 -212682803#1 -212682803#0 212701270#0 212701270#1 212701270#2 212701270#3 446514653 212701295#7 -446514662#3 446514662#3"/>
  </vehicle>
  <vehicle id="veh48" depart="48.0" type="electric11">
    <param key="device.battery.chargeLevel" value="61507"/>
    <route edges="-444291989#1 -444291998#3 -444291998#2 -444291998#1 -444291998#0 212706356#0"/>
  </vehicle>
  <vehicle id="veh49" depart="49.0" type="electric16">
    <param key="device.battery.chargeLevel" value="80397"/>
    <route edges="212402366 212402362#2 453772985#2 212402347#2 212402347#3 212402347#5 -452647829#2 -452647829#0 -452647830#1 212402385#0 212402385#1 212402380#0 212402380#1 212402327#5 212402345#0 -212402310#3"/>
  </vehicle>
  <vehicle id="veh50" depart="50.0" type="electric16">
    <param key="device.battery.chargeLevel" value="80619"/>
    <route edges="-1178404909#0 1178404909#0 1178404909#1 1178404909#2 446514662#0 446514662#1 446514662#3 446514662#4 446514662#5 1178560324 -212691492 443957055#7 443957055#9 443957055#10 443957055#11 -444292033#1 -444292033#0 212682800#0 212682800#1 444292029#3 444292022#1 444292022#2 444292022#3 444292022#4 444292022#5 -452398496#1 -452398496#0 -452398504#1 -452398504#0 -137614083#10 -137614083#9 -137614083#8 -137614083#7 -137614083#6 -212682838#4 -212682838#3 -212682838#2 -212682834#3 -212682834#2 -444292008#1 -444292008#0 -444292011#8 -444292011#7 -444292011#5 212706355"/>
  </vehicle>
  <vehicle id="veh51" depart="51.0" type="electric8">
    <param key="device.battery.chargeLevel" value="49376"/>
    <route edges="443955353 275157763#6 275157760#0 275157760#1 275157759#0 275157759#1 275157759#2 460215284#0 460215284#1 460215284#2 460215284#3 460215284#4 460215284#5 460215284#6 460215284#7 460215284#8 460215284#9 444291978#0 -444291978#0 235445423#0 235445423#1 235445423#2 235445423#3 235445423#4 235445423#5 235445423#6 -444293150#1 212682782#0 212682782#1 212682841#0 212682841#2 -212682803#3 -212682803#2 -212682803#1 -212682803#0 212701270#0 212701270#1 212701270#2 212701270#3 446514653 212701295#7 -446514662#3 212701279#0 212701279#1 -212701296#0 212701274#1"/>
  </vehicle>
  <vehicle id="veh52" depart="52.0" type="electric14">
    <param key="device.battery.chargeLevel" value="72820"/>
    <route edges="212402315 -212402315 -212402358#1 -212402358#0 -446823214#0 -212402322#7 -212402310#6 -212402396#2 -212402396#1 -212402396#0 212402328#4 212402328#6 452647828#0 452647828#1 -212402354 212402398#1 138074615#2 212402394#0 212402394#1 212402394#2 212402394#3 212402394#5 -212402367#3 -212402367#1 -212402367#0 212402292#5 212402292#6 -137614083#10 -137614083#9 -137614083#8 138074610#0 138074610#2 138074610#3 138074610#4 -212682834#6 -212682834#5 -212682823#1 -212682823#0 -444292000#5 -444292000#4 -444292000#3 444292000#3"/>
  </vehicle>
  <vehicle id="veh53" depart="53.0" type="electric3">
    <param key="device.battery.chargeLevel" value="24327"/>
    <route edges="-212402307#1 -212402323 -E7 446514652#5 446514652#6 453772980#0 453772980#1 453772980#2 453772980#3 460213970#3 460213970#4 460213971#0 460213971#1 444292022#0 444292022#1 444292022#2 444292022#3 444292022#4 444292022#5 -452398496#1 -452398496#0 -452398504#1 -452398504#0 -137614083#10 -137614083#9 -137614083#8 138074610#0 138074610#2 138074610#3 138074610#4 -212682834#6 -212682805#1"/>
  </vehicle>
  <vehicle id="veh54" depart="54.0" type="electric20">
    <param key="device.battery.chargeLevel" value="95170"/>
    <route edges="-212402403#2 212402403#2 212402403#3 212402403#4 212402403#5 212402403#6 212402403#7 -453772984 -212402347#2 -453772985#2 -212402362#2 -212402362#1 -212402362#0 -212402303#2 -212402367#3 -212402367#1 -212402367#0 212402292#5 212402292#6 -137614083#10 -137614083#9 -137614083#8 138074610#0 138074610#2 138074610#3 138074610#4 -212682834#6 -212682805#1 -212682805#0 212706333#0 212706333#1 212706360#0 212706360#1 -212706356#0 444291998#0 444291998#1"/>
  </vehicle>
  <vehicle id="veh55" depart="55.0" type="electric11">
    <param key="device.battery.chargeLevel" value="58984"/>
    <route edges="212682835#0 -212682839#0 -444292029#1 212682828#0 -138074595#5 212682793 212691492 -1178560324 -446514662#5 -446514662#4 -446514662#3 212701279#0 212701279#1 212701278 -212701278"/>
  </vehicle>
  <vehicle id="veh56" depart="56.0" type="electric14">
    <param key="device.battery.chargeLevel" value="67765"/>
    <route edges="212402378#0 212402403#6 212402403#7 -453772984 -212402347#2 -453772985#2 -212402362#2 -212402362#1 -212402362#0 -212402303#2 -212402367#3 -212402367#1"/>
  </vehicle>
  <vehicle id="veh57" depart="57.0" type="electric12">
    <param key="device.battery.chargeLevel" value="58176"/>
    <route edges="-215013307 212410136 457106272#13 457106272#14 -659351467#5 -659351467#4 -659351467#3 -659351467#2 -659351467#1 -659351467#0 -212410130#0 417805171#1 263520336#5 263520336#6 -460210276 212402327#1 212402327#2 -212402322#5 -212402322#4 212402328#2 212402328#4 212402328#6 452647828#0 452647828#1 -212402354 212402398#1 138074615#2 212402394#0 212402394#1 212402394#2 212402394#3 212402394#5 -212402367#3 -212402367#1 -212402367#0 212402292#5 212402292#6 -137614083#10 -137614083#9 -137614083#8 138074610#0 138074610#2 138074610#3 138074610#4 -138074610#4"/>
  </vehicle>
  <vehicle id="veh58" depart="58.0" type="electric11">
    <param key="device.battery.chargeLevel" value="62992"/>
    <route edges="212709065#0 212709065#1 -212709054#6 -212709054#5 -212709054#4 -212709054#3 -212709054#2 -212709054#1 -212709054#0 -212706370#4 -212706370#3 275157752#3 275157752#4 275157752#5 460215284#9 444291978#0 -444291978#0 235445423#0 235445423#1 235445423#2 235445423#3 235445423#4 235445423#5 235445423#6 -444293150#1 212682782#0 212682782#1 444293147#1 444293149 444292031 444292035 212682793 212691492 212691509#1 -212691509#1"/>
  </vehicle>
  <vehicle id="veh59" depart="59.0" type="electric2">
    <param key="device.battery.chargeLevel" value="25260"/>
    <route edges="443955345#0 700564920#1"/>
  </vehicle>
  <vehicle id="veh60" depart="60.0" type="electric8">
    <param key="device.battery.chargeLevel" value="42495"/>
    <route edges="443955345#0 443955345#1 -700564921 -212709066#2 -212709066#1 -212709066#0 275157763#3 275157763#4 275157763#6 275157760#0 275157760#1 275157759#0 275157759#1 275157759#2 460215284#0 460215284#1 460215284#2 460215284#3 460215284#4 460215284#5 460215284#6 460215284#7 460215284#8 460215284#9 444291978#0 444291978#2 444291978#4 444291978#5 -138074610#7 -138074610#6 -138074610#5 -138074610#4 -138074610#3 -138074610#2 -212682814#2 1181466354"/>
  </vehicle>
  <vehicle id="veh61" depart="61.0" type="electric16">
    <param key="device.battery.chargeLevel" value="80037"/>
    <route edges="-212701295#3 -212701277#1 -212701270#1 -212701288#0 446514662#9 443957055#4 443957055#5 443957055#7 443957055#9 443957055#10 443957055#11 -444292033#1 -444292033#0 212682800#0 212682800#1 444292029#3 444292022#1 444292022#2 444292022#3 444292022#4 444292022#5 -452398496#1 -452398496#0 -452398504#1 -452398504#0 -137614083#10 -137614083#9 -137614083#8 138074610#0 138074610#2 138074610#3 138074610#4 138074610#5 138074610#6 138074610#7 444291984#0"/>
  </vehicle>
  <vehicle id="veh62" depart="62.0" type="electric11">
    <param key="device.battery.chargeLevel" value="58154"/>
    <route edges="-212402369#1 212402403#1 212402403#2 212402403#3 212402403#4 212402335#1 -138074615#10 -138074615#9 -138074615#7 -138074615#5 -452647829#2 -452647829#0 -452647830#1 212402385#0 212402385#1 212402380#0 212402302#2 212402302#3 212402324"/>
  </vehicle>
  <vehicle id="veh63" depart="63.0" type="electric8">
    <param key="device.battery.chargeLevel" value="50868"/>
    <route edges="-212682835#0 444292022#2 444292022#3 444292022#4 444292022#5 -452398496#1 -212402325#1 -212402325#0 -212402298#2 -212402313 453772985#0 453772985#1 453772985#2 -212402347#1"/>
  </vehicle>
  <vehicle id="veh64" depart="64.0" type="electric7">