<?xml version="1.0" ?>
<routes>
  <vehicle id="veh1" depart="1.0" type="electric15">
    <param key="device.battery.chargeLevel" value="73943"/>
    <route edges="-1178560322#1 1178560322#1 -212691495#3 212691477 -212701295#7 -212701295#5 -212701295#4 -212701295#3 212701284#0 -443957054#0"/>
  </vehicle>
  <vehicle id="veh2" depart="2.0" type="electric2">
    <param key="device.battery.chargeLevel" value="23280"/>
    <route edges="-444292011#3 444292011#3 444292011#4 444292011#5 444292011#7 444292011#8 444292008#0 444292008#1 444292008#2 444292008#3 444292008#4 137614083#4 137614083#5 137614083#6 137614083#7 137614083#8 137614083#9 137614083#10 452398504#0 -212402356#1 212402356#1"/>
  </vehicle>
  <vehicle id="veh3" depart="3.0" type="electric8">
    <param key="device.battery.chargeLevel" value="51087"/>
    <route edges="460215281#0 -452398495#1 212682836#1 -212682811 275157752#10 -452398496#1 -212402325#1 -212402325#0 -212402298#2 -212402298#1 -212402298#0 138074615#1 -212402398#1 212402354 -452647828#1 -452647828#0 -212402328#6 -212402328#4 -212402328#2 -212402328#1 212402328#1"/>
  </vehicle>
  <vehicle id="veh4" depart="4.0" type="electric8">
    <param key="device.battery.chargeLevel" value="43468"/>
    <route edges="212402305#0 -212402305#0 -452398504#1 -452398504#0 -137614083#10 -137614083#9 -137614083#8 -137614083#7 -137614083#6 -212682838#4 -212682838#3 -212682838#2 -212682838#1 -212682838#0 -212706353#1"/>
  </vehicle>
  <vehicle id="veh5" depart="5.0" type="electric10">
    <param key="device.battery.chargeLevel" value="55245"/>
    <route edges="-212709065#6 -212709065#4 -212709065#3 -212709054#6 -212709054#5 -212709054#4 -212709054#3 -212709054#2 -212709054#1 E17 -212706370#2 212706376#0 212706376#1"/>
  </vehicle>
  <vehicle id="veh6" depart="6.0" type="electric14">
    <param key="device.battery.chargeLevel" value="72910"/>
    <route edges="-212402307#2 -212402307#1 -E6 E4 -212402302#5 -212402399#2 212402332#1 -212402332#1"/>
  </vehicle>
  <vehicle id="veh7" depart="7.0" type="electric6">
    <param key="device.battery.chargeLevel" value="43437"/>
    <route edges="138074601#1 -138074601#1 -212691470#4 -446514658#6 -446514658#4 -446514658#3 -446514658#2 -446514658#1 -446514658#0 -212691480#4 -212691480#3 -212691480#1 -212691480#0 212691505#2 212691489#0 212691509#3 212691509#4 446514652#6 453772980#0 453772980#1 453772980#2 E24 E15 444292022#1 444292022#2 E7 -452398496#1 -452398496#0 -452398498 212402303#0 -212402367#3 -212402367#1 -212402367#0 -212402292#3 -212402311#2"/>
  </vehicle>
  <vehicle id="veh8" depart="8.0" type="electric17">
    <param key="device.battery.chargeLevel" value="82831"/>
    <route edges="212682800#0 -212682800#0 444292033#0 444292033#1 -443957055#11 -443957055#10 -443957055#9 -443957055#7 212691492 -1178560324 212701291#0 212701291#1"/>
  </vehicle>
  <vehicle id="veh9" depart="9.0" type="electric3">
    <param key="device.battery.chargeLevel" value="28684"/>
    <route edges="212682790#1 -444293148#1 -444293148#0 444293149 444292031 444292035 212682793 212691492 212691509#1 212691509#2 -212691489#0 212691505#3 212691505#4 E3 E5 -212402327#7 -212402327#5"/>
  </vehicle>
  <vehicle id="veh10" depart="10.0" type="electric11">
    <param key="device.battery.chargeLevel" value="62244"/>
    <route edges="-212706365#1 -212706365#0 -212706373#0 444292011#7 444292011#8 444292008#0 444292008#1 444292008#2 444292008#3 444292008#4 137614083#4 137614083#5 137614083#6 137614083#7 137614083#8 137614083#9 137614083#10 -212402292#6 -212402292#5 212402367#0 212402367#1 212402367#3 212402303#2 212402362#0 212402362#1 212402362#2 453772985#2 212402347#2 453772984 -212402403#7 -212402403#6 -212402403#5 -212402403#4 -212402403#3 -212402339#0"/>
  </vehicle>
  <vehicle id="veh11" depart="11.0" type="electric4">
    <param key="device.battery.chargeLevel" value="28102"/>
    <route edges="212682822#1 138074617#1 138074617#2 138074617#3 444293148#0 444293148#1 444293148#2 212682837#2 212682837#3 E8 -452398496#1 -452398496#0 -452398498 212402303#0 -212402367#3 -212402367#1 -212402367#0 -212402292#3 -212402292#2 -212402368#1"/>
  </vehicle>
  <vehicle id="veh12" depart="12.0" type="electric13">
    <param key="device.battery.chargeLevel" value="67971"/>
    <route edges="-212691478#3 -212691480#4 -212691480#3 -212691480#1 -212691480#0 212691505#2 212691489#0 -212691509#2 -212691481 -212682828#2 -212682828#0 444292029#1 212682839#0 212682839#1 212682839#2 -212682837#3"/>
  </vehicle>
  <vehicle id="veh13" depart="13.0" type="electric1">
    <param key="device.battery.chargeLevel" value="14354"/>
    <route edges="138074610#3 138074610#4 -212682834#6 -212682834#5 -212682834#4 -212682834#3 -212682834#2 -444292008#1 -444292008#0 -444292011#8 -444292011#7 -444292011#5 -444292011#4 -444292011#3 444292011#3"/>
  </vehicle>
  <vehicle id="veh14" depart="14.0" type="electric15">
    <param key="device.battery.chargeLevel" value="71421"/>
    <route edges="-212682821#0 212682821#0 212682821#1"/>
  </vehicle>
  <vehicle id="veh15" depart="15.0" type="electric20">
    <param key="device.battery.chargeLevel" value="93323"/>
    <route edges="212402380#2 -212402380#2 -212402380#1 -212402380#0 212402328#6 452647828#0 452647828#1 -212402354 212402398#1 138074615#2 212402394#0 212402394#1 212402394#2 212402394#3 212402394#5 -212402367#3 -212402367#1 -212402367#0 212402292#5 212402292#6 -137614083#10 -137614083#9 -137614083#8 -137614083#7 -137614083#6 -137614083#5 -137614083#4 -137614083#2 -212682831#3 -212682831#2 212682831#2"/>
  </vehicle>
  <vehicle id="veh16" depart="16.0" type="electric19">
    <param key="device.battery.chargeLevel" value="94253"/>
    <route edges="212402325#0 -212402402#2 -212402402#1 -212402402#0 212402394#5 -212402367#3 -212402367#1 -212402367#0 -212402292#3 -212402292#2 -212402292#1 -212402381#1 -212402381#0 -212402297#1"/>
  </vehicle>
  <vehicle id="veh17" depart="17.0" type="electric8">
    <param key="device.battery.chargeLevel" value="47298"/>
    <route edges="212706363#2 -444291978#2 -E19 E13 -444293150#1 212682782#0 212682782#1 212682841#0 212682841#2 -212682803#3 -212682803#2 -212682803#1 -212682803#0 212701270#0 212701270#1 212701270#2 212701270#3 446514653 212701295#7 -212691477 212691495#3 -1178560322#1 1178560322#1"/>
  </vehicle>
  <vehicle id="veh18" depart="18.0" type="electric9">
    <param key="device.battery.chargeLevel" value="51756"/>
    <route edges="212691495#2 212691477 -212701295#7 -212701295#5 -212701295#4 -212701295#3 -212701295#1 212701295#1"/>
  </vehicle>
  <vehicle id="veh19" depart="19.0" type="electric7">
    <param key="device.battery.chargeLevel" value="40010"/>
    <route edges="212402339#0 212402403#3 212402403#4 212402403#5 212402403#6 212402403#7 -453772984 -212402347#2 -453772985#2 -212402362#2 -212402362#1 -212402362#0 -212402303#2 -212402303#0 452398498 452398495#0 452398495#1 452398495#2 452398495#3 -212706376#2 -212706376#1 -212706376#0 212706370#2 -E17 212709054#1 212709054#2 212709054#3 212709054#4 212709054#5 212709054#6 212709090#0"/>
  </vehicle>
  <vehicle id="veh20" depart="20.0" type="electric15">
    <param key="device.battery.chargeLevel" value="76590"/>
    <route edges="-212682822#0 212682822#0 -212682841#3 -212682803#3 -212682803#2 -212682803#1 -212682803#0 443957055#3 -446514662#9 -446514662#8 -446514662#7 212691505#0 212691505#1 212691505#2 212691489#0"/>
  </vehicle>
  <vehicle id="veh21" depart="21.0" type="electric4">
    <param key="device.battery.chargeLevel" value="30515"/>
    <route edges="212402351 -212402351 452647828#0 452647828#1 -212402354 212402398#1 138074615#2 212402394#0 212402394#1 212402394#2 212402394#3 212402394#5 -212402367#3 -212402367#1 -212402367#0 212402292#5 212402292#6 -137614083#10 -137614083#9 -137614083#8"/>
  </vehicle>
  <vehicle id="veh22" depart="22.0" type="electric1">
    <param key="device.battery.chargeLevel" value="20339"/>
    <route edges="444292011#3 444292011#4 444292011#5 444292011#7 444292011#8 138074622#2 138074622#3 138074622#5 -444292000#5"/>
  </vehicle>
  <vehicle id="veh23" depart="23.0" type="electric19">
    <param key="device.battery.chargeLevel" value="92981"/>
    <route edges="-212691470#2 -212691498#1 446514657#0 446514657#1 -446514658#4 -446514658#3 -446514658#2 -446514658#1 -212691491 -212691495#5 -212691495#3 212691477 -212701295#7 -212701295#5 -1177345932 443957054#3"/>
  </vehicle>
  <vehicle id="veh24" depart="24.0" type="electric17">
    <param key="device.battery.chargeLevel" value="78513"/>
    <route edges="444292031 444292029#0 444292029#1 444292029#2 444292029#3 444292022#1 444292022#2 E7 -452398496#1 -452398496#0 -452398504#1 -452398504#0 -137614083#10 -137614083#9 -137614083#8 138074610#0 138074610#2 138074610#3 138074610#4 -212682834#6 -212682805#1 -212682805#0 212706333#0 212706333#1 212706333#3 212706333#4 -212706333#4"/>
  </vehicle>
  <vehicle id="veh25" depart="25.0" type="electric13">
    <param key="device.battery.chargeLevel" value="67060"/>
    <route edges="-212402345#0 -212402324 -212402302#3 -212402351 452647828#0 452647828#1 -212402354 212402398#1 138074615#2 212402394#0 212402394#1 212402394#2 212402394#3 212402394#5 -212402367#3 212402367#3"/>
  </vehicle>
  <vehicle id="veh26" depart="26.0" type="electric8">
    <param key="device.battery.chargeLevel" value="44220"/>
    <route edges="-212691477 -212691495#2 -212691499#1 -212691499#0 -212691480#1 -212691480#0 212691505#2 212691489#0 212691509#3 212691509#4 446514652#6 453772980#0 453772980#1 453772980#2 E24 E15 444292022#1 444292022#2 E7 -452398496#1 -452398496#0 452398495#0 452398495#1 452398495#2 452398495#3 -212706376#2 -212706376#1 -212706376#0 212706370#2 -E17 212709054#1 212709054#2 212709054#3 212709054#4 212709054#5 212709054#6 212709065#3 212709065#4 212709065#6 -212709066#2 -212709066#1 212709049"/>
  </vehicle>
  <vehicle id="veh27" depart="27.0" type="electric5">
    <param key="device.battery.chargeLevel" value="33192"/>
    <route edges="1181466352#1 -1181466352#1 -1181466352#0 212402292#1 212402292#2 212402292#3 212402292#5 212402292#6 452398503#0 452398503#1 452398503#3 452398503#4 452398503#5 -212682824#0"/>
  </vehicle>
  <vehicle id="veh28" depart="28.0" type="electric6">
    <param key="device.battery.chargeLevel" value="35137"/>
    <route edges="212402381#0 212402381#1 212402292#1 212402292#2 212402292#3 212402367#0 212402367#1 212402367#3 -212402394#5 -212402394#3 -212402394#2 -212402394#1 -212402394#0 -138074615#2 -138074615#1 212402399#0 212402399#1 212402332#1 460213377#1 460213377#2 460213377#3 212402307#0"/>
  </vehicle>
  <vehicle id="veh29" depart="29.0" type="electric2">
    <param key="device.battery.chargeLevel" value="19624"/>
    <route edges="212691509#1 212691509#2 -212691489#0 -212691505#2 212691480#0 212691480#1 212691480#3 212691480#4 446514658#0 -212691491"/>
  </vehicle>
  <vehicle id="veh30" depart="30.0" type="electric15">
    <param key="device.battery.chargeLevel" value="79766"/>
    <route edges="453772971#0 453772971#1 212402322#2 212402400#0 212402384#1 212402328#4 212402380#0 212402302#2 212402302#3 212402302#4 212402302#5 -E4 -E3 -212691505#4 -212691506#5 -212691509#3"/>
  </vehicle>
  <vehicle id="veh31" depart="31.0" type="electric9">
    <param key="device.battery.chargeLevel" value="47871"/>
    <route edges="212682838#4 137614083#6 137614083#7 138074610#0 138074610#2 138074610#3 138074610#4 138074610#5 138074610#6"/>
  </vehicle>
  <vehicle id="veh32" depart="32.0" type="electric8">
    <param key="device.battery.chargeLevel" value="49271"/>
    <route edges="-212402292#5 212402367#0 212402367#1 212402367#3 -212402394#5 -212402394#3 -212402394#2 -212402394#1 -212402394#0 -138074615#2 -138074615#1 212402399#0 212402399#1 212402332#1 460213377#1 460213377#2 -212691505#4 -212691505#3 -212691505#2 212691480#0"/>
  </vehicle>
  <vehicle id="veh33" depart="33.0" type="electric6">
    <param key="device.battery.chargeLevel" value="43682"/>
    <route edges="212402314 -212402314 -212402304#3 -212402304#2 -212402322#9 -212402322#8 -212402322#7 -212402310#6 -212402396#2 -212402396#1 -212402396#0 212402328#4 212402328#6 452647828#0 452647828#1 -212402354 212402398#1 138074615#2 212402394#0 212402394#1 212402394#2 212402394#3 212402394#5 -212402367#3 -212402367#1 -212402367#0 212402292#5 212402292#6 -137614083#10 -137614083#9 -137614083#8 138074610#0 138074610#2 138074610#3 138074610#4 -212682834#6 -212682805#1 -212682805#0 212706333#0 212706333#1 212706360#0 212706360#1 -212706356#0 444291998#0 444291998#1 444291998#2 444291998#3 -444291989#0"/>
  </vehicle>
  <vehicle id="veh34" depart="34.0" type="electric16">
    <param key="device.battery.chargeLevel" value="74762"/>
    <route edges="-212402308#2 -212402308#1 -212402354 212402398#1 138074615#2 212402394#0 212402394#1 212402394#2 212402394#3 212402394#5 -212402367#3 -212402367#1 -212402367#0 212402292#5 212402292#6 -137614083#10 -137614083#9 -137614083#8 -137614083#7 -137614083#6 -137614083#5 -137614083#4 -444292008#4 -444292008#3 -444292008#2 -444292008#1 -444292008#0 -444292011#8 -444292011#7 212706373#0 212706365#0 212706365#1"/>
  </vehicle>
  <vehicle id="veh35" depart="35.0" type="electric11">
    <param key="device.battery.chargeLevel" value="54691"/>
    <route edges="212402299#3 212402368#1 212402292#2 212402292#3 212402367#0 212402367#1 212402367#3 -212402394#5 -212402394#3 -212402394#2 -212402394#1 -212402394#0 -138074615#2 -212402398#1 212402354 -452647828#1 -452647828#0 -212402328#6 212402380#0 212402380#1 212402380#2 212402380#3 212402307#4 212402396#4 212402396#5 212402396#6 212402383 -212402291#1"/>
  </vehicle>
  <vehicle id="veh36" depart="36.0" type="electric19">
    <param key="device.battery.chargeLevel" value="92775"/>
    <route edges="212691470#2 -212691470#2 -212691498#1 -212691498#0 212402300#2 446514652#0 446514652#1 446514652#2 446514652#3 446514652#4 460213377#3 212402307#0 212402307#1 212402307#2 212402307#3 212402307#4 212402396#4 212402396#5 212402301#1 212402377#0"/>
  </vehicle>
  <vehicle id="veh37" depart="37.0" type="electric10">
    <param key="device.battery.chargeLevel" value="50300"/>
    <route edges="212402299#5 452398492#2 452398492#3 212402292#1 212402292#2 212402292#3 212402367#0 212402367#1 212402367#3 -212402303#0 452398498 452398496#0 452398496#1 -E7 212682790#0 -212682839#1 -212682839#0 -444292029#1 212682828#0 -138074595#5 212682793 -443957055#5 -443957055#4 -446514662#9 212701288#0 212701270#1 212701277#1 212701284#0 -443957054#0"/>
  </vehicle>
  <vehicle id="veh38" depart="38.0" type="electric1">
    <param key="device.battery.chargeLevel" value="23240"/>
    <route edges="444292000#5 138074622#6 138074622#8 -444291978#5 212682825#0 -452398505 212682824#0"/>
  </vehicle>
  <vehicle id="veh39" depart="39.0" type="electric12">
    <param key="device.battery.chargeLevel" value="60812"/>
    <route edges="-689087847#1 -689087847#0 212402338#0 -453772974#3 -453772974#2 -453772974#1 -453772974#0 713153658 -453772978#4 -453772978#3 -453772978#2 -453772978#1 -212402362#0 -212402303#2 -212402303#0 452398498 452398496#0 452398496#1 -E7 212682790#0 212682790#1 212682790#2 212682841#0 -212682789"/>
  </vehicle>
  <vehicle id="veh40" depart="40.0" type="electric19">
    <param key="device.battery.chargeLevel" value="86098"/>
    <route edges="446514651 -212691506#3 -212691506#2"/>
  </vehicle>
  <vehicle id="veh41" depart="41.0" type="electric14">
    <param key="device.battery.chargeLevel" value="73715"/>
    <route edges="-212691504#0 446514652#1 446514652#2 446514652#3 446514652#4 446514652#5 446514652#6 453772980#0 453772980#1 453772980#2 E24 E15 444292022#1 444292022#2 E7 -452398496#1 -452398496#0 -452398504#1 -452398504#0 -137614083#10 -137614083#9 212682810"/>
  </vehicle>
  <vehicle id="veh42" depart="42.0" type="electric20">
    <param key="device.battery.chargeLevel" value="99165"/>
    <route edges="-212701292#3 -212701292#2 -212701292#1 1177339960#0"/>
  </vehicle>
  <vehicle id="veh43" depart="43.0" type="electric17">
    <param key="device.battery.chargeLevel" value="81720"/>
    <route edges="446823214#0 -446823214#0 -212402322#7 -212402310#6 -212402310#5 -212402380#2 -212402327#4"/>
  </vehicle>
  <vehicle id="veh44" depart="44.0" type="electric19">
    <param key="device.battery.chargeLevel" value="89267"/>
    <route edges="138074615#13 -138074615#13 -138074615#12 -138074615#11 -138074615#10 -138074615#9 -138074615#7 212402322#0 212402322#1 212402322#2 212402322#3 212402322#4 212402322#5 212402322#6 212402322#7 212402322#8 -212402322#8"/>
  </vehicle>
  <vehicle id="veh45" depart="45.0" type="electric7">
    <param key="device.battery.chargeLevel" value="38508"/>
    <route edges="-212701270#3 -212701291#1 -212701291#0 212691505#0 212691505#1 212691505#2 212691505#3 212691505#4 E3 E4 -212402302#5 -212402302#4 -212402302#3 -212402302#2 -212402380#0"/>
  </vehicle>
  <vehicle id="veh46" depart="46.0" type="electric11">
    <param key="device.battery.chargeLevel" value="63623"/>
    <route edges="212709090#0 -212709090#0 -212709054#6 -212709054#5 212709088#0 212709088#1 -443955351#1 -443955351#0 -138074612 275157759#1 E11 E12 E19 -452398495#3 -212682824#2 -212682824#1 -212682824#0 -212682826#1 -212682826#0"/>
  </vehicle>
  <vehicle id="veh47" depart="47.0" type="electric6">
    <param key="device.battery.chargeLevel" value="40968"/>
    <route edges="-444293148#0 444293148#0 444293148#1 444293148#2 212682837#2 212682837#3 E8 -452398496#1 -452398496#0 -452398504#1 -452398504#0 -137614083#10 -137614083#9 -137614083#8 138074610#0 138074610#2 138074610#3 138074610#4 138074610#5 138074610#6 138074610#7 444291984#0 444291984#1 444291984#2 444291984#4 444291984#5"/>
  </vehicle>
  <vehicle id="veh48" depart="48.0" type="electric5">
    <param key="device.battery.chargeLevel" value="38274"/>
    <route edges="-212691490 212691490 -212691480#0 212691505#2 212691489#0 212691509#3 212691506#5"/>
  </vehicle>
  <vehicle id="veh49" depart="49.0" type="electric2">
    <param key="device.battery.chargeLevel" value="23511"/>
    <route edges="444293150#0 212682782#0 212682782#1 444293147#1 444293149 444292031 444292035 212682793 212691492 212691509#1 212691509#2 -212691489#0 212691505#3 212691505#4 E3 E5 -212402327#7 -212402327#5 212402327#5"/>
  </vehicle>
  <vehicle id="veh50" depart="50.0" type="electric10">
    <param key="device.battery.chargeLevel" value="54263"/>
    <route edges="-212709045#1 -212709045#0 212709065#3 212709065#4 212709065#6 -212709066#2 -212709066#1 212709049 -697225566#0"/>
  </vehicle>
  <vehicle id="veh51" depart="51.0" type="electric16">
    <param key="device.battery.chargeLevel" value="79657"/>
    <route edges="-212402301#2 -212402301#1 -212402396#5 -212402396#4 -212402396#3 -212402396#2 -212402396#1 -212402396#0 -212402384#1 -212402384#0 -452647830#1"/>
  </vehicle>
  <vehicle id="veh52" depart="52.0" type="electric3">
    <param key="device.battery.chargeLevel" value="29783"/>
    <route edges="212402396#2 -212402396#2 -212402396#1 -212402396#0 212402328#4 -212402385#1 -212402385#0 -452647830#0"/>
  </vehicle>
  <vehicle id="veh53" depart="53.0" type="electric1">
    <param key="device.battery.chargeLevel" value="21041"/>
    <route edges="713153659 -453772978#5 -453772978#4 -453772978#3 -453772978#2 -453772978#1 -212402362#0 -212402303#2 -212402303#0 452398498 452398496#0 452398496#1 -E7 212682790#0 212682790#1 -444293148#1"/>
  </vehicle>
  <vehicle id="veh54" depart="54.0" type="electric13">
    <param key="device.battery.chargeLevel" value="68329"/>
    <route edges="-212682841#4 -212682841#3 -212682841#2 -212682841#0 -212682790#2 444293148#2 212682837#2 212682837#3 E8 -452398496#1 -212402325#1 -212402325#0 -212402298#2 -212402298#1 -212402298#0 138074615#1 138074615#2 -138074615#2"/>
  </vehicle>
  <vehicle id="veh55" depart="55.0" type="electric15">
    <param key="device.battery.chargeLevel" value="79432"/>
    <route edges="-713153659 -453772974#1 212402335#0 212402335#1 -138074615#10 -138074615#9 -138074615#7 -138074615#5 -452647829#2 -452647829#0 -452647830#1 -452647830#0 212402308#1 212402332#0 212402332#1 460213377#1 460213377#2 -212691505#4 -212691505#3 -212691505#2 212691480#0 212691480#1 212691480#3 212691480#4 446514658#0 446514658#1 446514658#2 446514658#3 446514658#4 212691502#0 -212691502#0"/>
  </vehicle>
  <vehicle id="veh56" depart="56.0" type="electric3">
    <param key="device.battery.chargeLevel" value="27398"/>
    <route edges="-212706367#1 444292011#3 444292011#4 444292011#5 444292011#7 444292011#8 138074622#2 138074622#3 138074622#5 138074622#6 138074622#8 -444291978#5 -444291978#4 -444291978#2 -E19 E13 -444293150#1 212682782#0 212682782#1 212682841#0 212682841#2 -212682803#3 -212682803#2 -212682803#1 -212682803#0 212701270#0 212701270#1 212701270#2 212701270#3 446514653 212701295#7 -446514662#3 -446514662#1 212691478#0"/>
  </vehicle>
  <vehicle id="veh57" depart="57.0" type="electric19">
    <param key="device.battery.chargeLevel" value="89213"/>
    <route edges="-212706372#0 -444291984#0 -138074610#7 -138074610#6 -138074610#5 -138074610#4 -138074610#3 -138074610#2 -212682814#2 -212682814#1"/>
  </vehicle>
  <vehicle id="veh58" depart="58.0" type="electric11">
    <param key="device.battery.chargeLevel" value="56601"/>
    <route edges="-212402398#0 -452647829#0 -452647830#1 -452647830#0 -212402354 212402398#1 -138074615#1 212402298#0 453772983#2 -453772983#2"/>
  </vehicle>
  <vehicle id="veh59" depart="59.0" type="electric19">
    <param key="device.battery.chargeLevel" value="90643"/>
    <route edges="-212691506#0 212691506#0 212691506#1 212691506#2 212691506#3 212691506#4 212691506#5 212691505#4 460213377#3 212402307#0 212402307#1 212402307#2 212402307#3 212402307#4 212402307#5 -212402322#8 446823214#0 -446823214#0"/>
  </vehicle>
  <vehicle id="veh60" depart="60.0" type="electric18">
    <param key="device.battery.chargeLevel" value="84714"/>
    <route edges="-212402380#1 212402302#2 212402302#3 212402302#4 212402302#5 -E4 -E3 -212691505#4 -212691505#3 -212691505#2 212691480#0 212691480#1 212691480#3 1178560322#0 1178560322#1 212691475 -446514662#1 -446514662#0 -1178404909#2 -1178404909#1 -1178404909#0"/>
  </vehicle>
  <vehicle id="veh61" depart="61.0" type="electric18">
    <param key="device.battery.chargeLevel" value="87915"/>
    <route edges="138074615#2 -138074615#2 -138074615#1 212402399#0 212402399#1 212402332#1 460213377#1 460213377#2 -212691505#4 -212691505#3 -212691505#2 212691480#0 212691480#1 212691480#3 212691480#4 446514658#0 446514658#1 -446514658#1"/>
  </vehicle>
  <vehicle id="veh62" depart="62.0" type="electric16">
    <param key="device.battery.chargeLevel" value="79933"/>
    <route edges="-212682793 138074595#5 -212682828#0 444292029#1 444292029#2 444292029#3 444292022#1 444292022#2 E7 -452398496#1 -452398496#0 -452398504#1 -452398504#0 -137614083#10 -137614083#9 -137614083#8 138074610#0 138074610#2 138074610#3 138074610#4 -212682834#6 -212682805#1 -212682805#0 212706333#0 212706333#1 212706360#0 212706360#1 -212706356#0"/>
  </vehicle>
  <vehicle id="veh63" depart="63.0" type="electric8">
    <param key="device.battery.chargeLevel" value="47392"/>
    <route edges="453772971#1 -212402322#1 212402340 452647829#2 -212402347#5 -212402347#3 -212402347#2 -453772985#2 -212402362#2 -212402362#1 -212402362#0 -212402303#2 -212402367#3 -212402367#1 -212402367#0 212402292#5 212402292#6 -137614083#10 -137614083#9 -137614083#8 -137614083#7 -137614083#6 -212682838#4 212682814#1"/>
  </vehicle>
  <vehicle id="veh64" depart="64.0" type="electric19">
    <param key="device.battery.chargeLevel" value="88922"/>
    <route edges="212682797 212682820#2 -452398503#0 -212402292#6 -212402292#5 212402367#0 212402367#1 212402367#3 -212402394#5 -212402394#3 -212402394#2 -212402394#1 -212402394#0 -138074615#2 -212402398#1 212402354 -452647828#1 -452647828#0 -212402328#6 -212402328#4 -212402328#2 212402322#4 -212402322#4"/>
  </vehicle>
  <vehicle id="veh65" depart="65.0" type="electric16">
    <param key="device.battery.chargeLevel" value="74401"/>
    <route edges="-212682825#1 212682825#1 452398500#3 -138074610#6 212682821#0"/>
  </vehicle>
  <vehicle id="veh66" depart="66.0" type="electric11">
    <param key="device.battery.chargeLevel" value="54977"/>
    <route edges="452398500#2 -212682825#1 -452398505 212682824#0 212682824#1 212682824#2 452398495#3 -E19 E13 235445423#7 235445423#8 235445423#9 235445423#10 235445423#11 235445423#12 235445423#13 212682830#0 212682830#1 -1177339960#2 -1177339960#1 1177339958#0 1177339958#1 1177339958#2"/>
  </vehicle>
  <vehicle id="veh67" depart="67.0" type="electric11">
    <param key="device.battery.chargeLevel" value="57569"/>
    <route edges="-444292011#4 444292011#4 444292011#5 212706373#0 212706373#1 212706373#2 212706373#3 212706360#0 212706360#1 212706356#1 444291984#1 444291984#2 212706370#0 212706370#1 212706370#2 -E17 212709054#1 212709054#2 212709054#3 212709054#4 212709054#5 212709054#6 212709065#3 212709065#4 212709065#6 -212709066#2 -212709066#1 212709049 697225566#1"/>
  </vehicle>
  <vehicle id="veh68" depart="68.0" type="electric15">
    <param key="device.battery.chargeLevel" value="77019"/>
    <route edges="212402310#7 -212402310#7 -212402310#6 -212402396#2 -212402396#1 -212402396#0 212402328#4 212402328#6 452647828#0 452647828#1 -212402354 212402398#1 138074615#2 212402394#0 212402394#1 212402394#2 212402394#3 212402394#5 -212402367#3 -212402367#1 -212402367#0 212402292#5 212402292#6 452398503#0 452398503#1 452398503#3 -212682821#2 212682826#0 -452398500#1"/>
  </vehicle>
  <vehicle id="veh69" depart="69.0" type="electric5">
    <param key="device.battery.chargeLevel" value="33032"/>
    <route edges="-275157761#1 -212682841#4 -212682841#3 -212682841#2 -212682841#0 -212682790#2 444293148#2 212682837#2 212682837#3 E8 -452398496#1 -452398496#0 -452398504#1 -452398504#0 -137614083#10 -137614083#9 -137614083#8 138074610#0 138074610#2 -138074610#2"/>
  </vehicle>
  <vehicle id="veh70" depart="70.0" type="electric5">
    <param key="device.battery.chargeLevel" value="32290"/>
    <route edges="-1177339960#2 -212701284#1 -212701284#0 -212701277#1 -212701270#1 -212701288#0 446514662#9 443957055#4 443957055#5 443957055#7 443957055#9 443957055#10 443957055#11 -444292033#1 -444292033#0 212682800#0 212682800#1 444292029#3 444292022#1 444292022#2 E7 -452398496#1 -452398496#0 -452398504#1 -452398504#0 -137614083#10 -137614083#9 -137614083#8 -137614083#7 -137614083#6 -137614083#5 212402346"/>
  </vehicle>
  <vehicle id="veh71" depart="71.0" type="electric11">
    <param key="device.battery.chargeLevel" value="63562"/>
    <route edges="212682825#1 452398500#3 -138074610#6 -138074610#5 -138074610#4 -138074610#3"/>
  </vehicle>
  <vehicle id="veh72" depart="72.0" type="electric5">
    <param key="device.battery.chargeLevel" value="33802"/>
    <route edges="-452647830#1 -452647830#0 -212402354 212402398#1 138074615#2 212402394#0 212402394#1 212402394#2 212402394#3 212402394#5 -212402367#3 -212402367#1 -212402367#0 -212402292#3 -212402292#2"/>
  </vehicle>
  <vehicle id="veh73" depart="73.0" type="electric4">
    <param key="device.battery.chargeLevel" value="29573"/>
    <route edges="212682811 -212682811 275157752#10 -452398496#1 -212402325#1 -212402325#0 -212402298#2 -212402298#1 -212402298#0 138074615#1 -212402398#1 212402354 -452647828#1 -452647828#0 -212402328#6 -212402328#4 -212402328#2 -212402328#1"/>
  </vehicle>
  <vehicle id="veh74" depart="74.0" type="electric19">
    <param key="device.battery.chargeLevel" value="95827"/>
    <route edges="212402322#4 -212402322#4 212402328#2 212402328#4 212402328#6 452647828#0 452647828#1 -212402354 212402398#1 138074615#2 212402394#0 212402394#1 212402394#2 212402394#3 212402394#5 -212402367#3 -212402367#1 -212402367#0 212402292#5 212402292#6 452398503#0 452398503#1 452398503#3 452398503#4 452398503#5"/>
  </vehicle>
  <vehicle id="veh75" depart="75.0" type="electric3">
    <param key="device.battery.chargeLevel" value="30814"/>
    <route edges="452398504#0 -212402356#1 -212402356#0 212402367#3 -212402394#5 -212402394#3 -212402394#2 -212402394#1 -212402394#0 -138074615#2 -212402398#1 212402354 -452647828#1 -452647828#0 -212402328#6 212402380#0 212402380#1 212402380#2 212402380#3 212402307#4 212402396#4 212402396#5 212402396#6 446514663#2 -446514663#2"/>
  </vehicle>
  <vehicle id="veh76" depart="76.0" type="electric16">
    <param key="device.battery.chargeLevel" value="76018"/>
    <route edges="212706370#2 E18 E12 E13 -444293150#1 -444293150#0 212682802#0 212682802#1 212682837#3 E8 -452398496#1 -452398496#0 -452398498 212402303#0 212402303#2 212402362#0 453772978#1 453772978#2 453772978#3 453772978#4 -713153658"/>
  </vehicle>
  <vehicle id="veh77" depart="77.0" type="electric6">
    <param key="device.battery.chargeLevel" value="41693"/>
    <route edges="212402381#0 212402381#1 212402292#1 212402292#2 212402292#3 212402367#0 212402367#1 212402367#3 -212402303#0 452398498 452398496#0 452398496#1 -E7 212682790#0 -212682839#1 -212682839#0 -444292029#1 212682828#0 -212682788"/>
  </vehicle>
  <vehicle id="veh78" depart="78.0" type="electric16">
    <param key="device.battery.chargeLevel" value="83602"/>
    <route edges="-444291996#1 -444291998#0 212706356#0 -212706360#1 -212706360#0 -212706373#3 -212706373#2 -212706373#1 -212706373#0 444292011#7 444292011#8 -444292011#8"/>
  </vehicle>
  <vehicle id="veh79" depart="79.0" type="electric4">
    <param key="device.battery.chargeLevel" value="33118"/>
    <route edges="-212709065#9 -212709065#8 -212709066#2 -212709066#1 -212709066#0 275157763#3 275157763#4 275157763#6 275157760#0 275157760#1 275157759#0 275157759#1 E11 E12 E13 -444293150#1 -444293150#0 212682802#0 212682802#1 212682837#3 E8 -452398496#1 -452398496#0 -452398498 212402303#0 212402303#2 212402362#0 212402362#1 212402362#2 453772985#2 212402347#2 453772984 -212402403#7 -212402403#6"/>
  </vehicle>
  <vehicle id="veh80" depart="80.0" type="electric1">