<?xml version="1.0" ?>
<routes>
  <vehicle id="veh1" depart="1.0" type="electric19">
    <param key="device.battery.chargeLevel" value="93505"/>
    <route edges="-453772974#0 212402378#0 212402378#1 -138074615#9 -138074615#7 -138074615#5 -452647829#2 -452647829#0 -452647830#1 212402385#0 212402400#2"/>
  </vehicle>
  <vehicle id="veh2" depart="2.0" type="electric2">
    <param key="device.battery.chargeLevel" value="23577"/>
    <route edges="212691505#4 446514652#5 446514652#6 453772980#0 453772980#1 453772980#2 E24 212682844"/>
  </vehicle>
  <vehicle id="veh3" depart="3.0" type="electric1">
    <param key="device.battery.chargeLevel" value="18950"/>
    <route edges="212709085#0 -443955351#2 -443955351#1 -443955351#0 -138074612 275157759#1 E11 E12 E13 -444293150#1 212682782#0 212682782#1 212682841#0 212682841#2 -212682803#3 -212682803#2 -212682803#1 -212682803#0 212701270#0 212701270#1 212701270#2 212701270#3 446514653 212701295#7 -212691477 212691495#3 212691495#5 212691491 446514658#1 446514658#2 446514658#3 446514658#4 -446514657#1 -446514657#0 212691498#1 -212691470#1 -212691470#0"/>
  </vehicle>
  <vehicle id="veh4" depart="4.0" type="electric16">
    <param key="device.battery.chargeLevel" value="78071"/>
    <route edges="212701270#0 -212701288#0 -446514662#8 -446514662#7 212691505#0 212691505#1 212691505#2 212691505#3 212691505#4 460213377#3 212402307#0 212402307#1 212402307#2 212402307#3 212402307#4 212402396#4 212402396#5 212402396#6 -212402396#6"/>
  </vehicle>
  <vehicle id="veh5" depart="5.0" type="electric17">
    <param key="device.battery.chargeLevel" value="84042"/>
    <route edges="212682805#1 212682834#6 -138074610#4 -138074610#3 -138074610#2 -138074610#0 137614083#8 137614083#9 137614083#10 -212402292#6 -212402292#5 212402367#0 212402367#1 212402367#3 -212402394#5 -212402394#3 -212402394#2 -212402394#1 -212402394#0 -138074615#2 -212402398#1 212402354 -452647828#1 -452647828#0 -212402328#6 -212402328#4 212402396#0 212402396#1 212402396#2 212402310#6 -212402322#6"/>
  </vehicle>
  <vehicle id="veh6" depart="6.0" type="electric10">
    <param key="device.battery.chargeLevel" value="52528"/>
    <route edges="460215280 -212682802#0 -444293148#3 -444293148#2 -444293148#1 -444293148#0 -138074617#3 -138074617#2 -138074617#1 -138074617#0 275157761#2 275157761#3 138074595#3"/>
  </vehicle>
  <vehicle id="veh7" depart="7.0" type="electric18">
    <param key="device.battery.chargeLevel" value="85780"/>
    <route edges="-212709054#2 -212709054#1 E17 E18 E12 E19 -452398495#3 -212682824#2 212682786 460215281#0"/>
  </vehicle>
  <vehicle id="veh8" depart="8.0" type="electric12">
    <param key="device.battery.chargeLevel" value="61608"/>
    <route edges="212402305#1 453772985#0 453772985#1 453772985#2 212402347#2 212402347#3 212402347#5 -452647829#2 -452647829#0 212402384#0"/>
  </vehicle>
  <vehicle id="veh9" depart="9.0" type="electric13">
    <param key="device.battery.chargeLevel" value="63329"/>
    <route edges="452398500#2 212682825#2 212682821#1 212682821#2 -452398503#3 212682794 212682836#0 212682836#1 -212682811 275157752#10 460214435#0 460214435#1 460214435#2 E25 460213377#1 460213377#2 -212691505#4 -212691505#3 -212691505#2 212691480#0 212691480#1 212691480#3 212691480#4 446514658#0 446514658#1 446514658#2"/>
  </vehicle>
  <vehicle id="veh10" depart="10.0" type="electric13">
    <param key="device.battery.chargeLevel" value="66325"/>
    <route edges="-212402301#0 212402301#0 -212402396#5 -212402396#4 -212402396#3 -212402396#2 -212402327#3"/>
  </vehicle>
  <vehicle id="veh11" depart="11.0" type="electric18">
    <param key="device.battery.chargeLevel" value="82082"/>
    <route edges="-444291994#1 -444291994#0 -212706333#4 -212706333#3 -212706333#1 -212706333#0 212682805#0 212682805#1 212682834#6 138074610#5 212682821#0 212682821#1 212682821#2 -452398503#3 212682794 212682836#0 212682836#1 -212682811 275157752#10 -E7 212682790#0 -212682839#1 -212682839#0 444292029#2 -212682800#1 -212682800#0 444292033#0 444292033#1 -444292033#1"/>
  </vehicle>
  <vehicle id="veh12" depart="12.0" type="electric2">
    <param key="device.battery.chargeLevel" value="22301"/>
    <route edges="212691495#0 -212691495#0 -212691505#0 212701291#0 212701291#1 212701291#2 -212701295#3 212701284#0 443957054#1 212701292#0 1177339960#0"/>
  </vehicle>
  <vehicle id="veh13" depart="13.0" type="electric18">
    <param key="device.battery.chargeLevel" value="85739"/>
    <route edges="-444291984#4 -444291984#2 -444291984#1 -212706356#1 -212706356#0 -212706383 212706333#4"/>
  </vehicle>
  <vehicle id="veh14" depart="14.0" type="electric4">
    <param key="device.battery.chargeLevel" value="30674"/>
    <route edges="212402403#7 -453772984 -212402347#2 -453772985#2 -212402362#2 -212402362#1 -212402362#0 -212402303#2 -212402367#3 -212402367#1 -212402367#0 212402292#5 212402292#6 -137614083#10 -137614083#9 -137614083#8 138074610#0 138074610#2 138074610#3 138074610#4 -212682834#6 -212682834#5 -212682823#1 -212682823#0 -444292000#5 -444292000#4 -444292000#3 -212706340"/>
  </vehicle>
  <vehicle id="veh15" depart="15.0" type="electric2">
    <param key="device.battery.chargeLevel" value="19982"/>
    <route edges="212402297#0 452398492#1 452398492#2 444292017 -689087845 -453772978#3 -453772978#2 212402347#0 212402347#1 212402347#2 212402347#3 212402347#5 -452647829#2 -452647829#0 212402384#0 212402384#1 212402396#0 212402396#1 212402396#2 212402396#3 212402396#4 212402396#5 212402301#1 212402377#0"/>
  </vehicle>
  <vehicle id="veh16" depart="16.0" type="electric10">
    <param key="device.battery.chargeLevel" value="56697"/>
    <route edges="-212682839#1 212682839#1 -212682790#0 E7 -452398496#1 -452398496#0 -452398498 212402303#0 212402303#2 212402362#0 212402362#1 212402362#2 453772985#2 212402347#2 212402347#3 212402347#5"/>
  </vehicle>
  <vehicle id="veh17" depart="17.0" type="electric12">
    <param key="device.battery.chargeLevel" value="65068"/>
    <route edges="444292029#1 444292029#2 444292029#3 444292022#1 444292022#2 E7 -452398496#1 -452398496#0 -452398504#1 -452398504#0 -137614083#10 -137614083#9 -137614083#8 138074610#0 138074610#2 138074610#3 138074610#4 -212682834#6 -212682834#5 -212682823#1 -212682823#0"/>
  </vehicle>
  <vehicle id="veh18" depart="18.0" type="electric19">
    <param key="device.battery.chargeLevel" value="95458"/>
    <route edges="212402347#1 212402347#2 212402347#3 212402347#5 -452647829#2 -452647829#0 -452647830#1 -452647830#0 212402308#1 212402332#0 212402332#1 460213377#1 460213377#2 -212691505#4 -212691505#3 212691489#0 -212691509#2"/>
  </vehicle>
  <vehicle id="veh19" depart="19.0" type="electric20">
    <param key="device.battery.chargeLevel" value="98250"/>
    <route edges="-212706373#2 212706373#2 212706373#3 212706360#0 212706360#1 212706356#1 212706372#0 -212706363#1 -212706378#1 -212706376#0"/>
  </vehicle>
  <vehicle id="veh20" depart="20.0" type="electric2">
    <param key="device.battery.chargeLevel" value="23794"/>
    <route edges="-212691502#1 -212691502#0 -446514658#4 -446514658#3 -446514658#2 -446514658#1 -446514658#0 -212691480#4 -212691480#3 -212691480#1 -212691480#0 212691505#2 212691489#0 -212691509#2 -212691481 -212682828#2 -212682828#0 444292029#1"/>
  </vehicle>
  <vehicle id="veh21" depart="21.0" type="electric8">
    <param key="device.battery.chargeLevel" value="50758"/>
    <route edges="-212402380#3 -212402310#4 -212402345#0 212402327#7 -E5 -E3 -212691505#4 -212691505#3 -212691505#2 -212691505#1 -212691505#0 446514662#7 446514662#8 446514662#9 -443957055#3 212682803#0 212682803#1 212682803#2 212682803#3 212682841#3 212682841#4 -275157761#0 275157761#0"/>
  </vehicle>
  <vehicle id="veh22" depart="22.0" type="electric18">
    <param key="device.battery.chargeLevel" value="84757"/>
    <route edges="-212706353#0 212706353#0 212706353#1 212682838#0 212682838#1 212682838#2 212682838#3 212682838#4 137614083#6 137614083#7 137614083#8 137614083#9 137614083#10 -212402292#6 -212402292#5 212402367#0 212402367#1 212402367#3 -212402394#5 -212402394#3 -212402394#2 -212402394#1 -212402394#0 -138074615#2 -212402398#1 212402354 -452647828#1 -452647828#0 -212402328#6 212402380#0 212402380#1 212402380#2 212402380#3 212402307#4 212402396#4 212402396#5 212402396#6 212402383 212402291#2"/>
  </vehicle>
  <vehicle id="veh23" depart="23.0" type="electric12">
    <param key="device.battery.chargeLevel" value="63775"/>
    <route edges="212682828#2 443957055#9 443957055#10 443957055#11 -444292033#1 -444292033#0 212682800#0 212682800#1 444292029#3 444292022#1 444292022#2 E7 -452398496#1 -452398496#0 452398495#0 452398495#1 452398495#2 452398495#3 -212706376#2 -212706376#1 -212706376#0 212706370#2 -E17 212709054#1 212709054#2 212709054#3 212709054#4 212709054#5 212709054#6 -212709065#1 212709065#1"/>
  </vehicle>
  <vehicle id="veh24" depart="24.0" type="electric18">
    <param key="device.battery.chargeLevel" value="91731"/>
    <route edges="212682782#1 -212682790#2 444293148#2 212682837#2 212682837#3 E8 -452398496#1 -452398496#0 -452398504#1 -452398504#0 -137614083#10 -137614083#9 -137614083#8 -137614083#7 -137614083#6 -212682838#4 -212682838#3"/>
  </vehicle>
  <vehicle id="veh25" depart="25.0" type="electric12">
    <param key="device.battery.chargeLevel" value="63719"/>
    <route edges="-212701276 212701295#7 -212691477 -212691495#2 -212691499#1 -212691499#0 -212691482#1 -212691482#0 446514652#4 E3 E4 -212402302#5 -212402302#4 -212402302#3 -212402302#2 -212402380#0"/>
  </vehicle>
  <vehicle id="veh26" depart="26.0" type="electric8">
    <param key="device.battery.chargeLevel" value="51702"/>
    <route edges="212402327#5 -212402324 -212402302#3 -212402351 452647828#0 452647828#1 -212402354 212402398#1 138074615#2 212402394#0 212402394#1 212402394#2 212402394#3 212402394#5 -212402367#3 -212402367#1 -212402367#0 212402292#5 212402292#6 452398503#0 452398503#1 452398503#3"/>
  </vehicle>
  <vehicle id="veh27" depart="27.0" type="electric5">
    <param key="device.battery.chargeLevel" value="36608"/>
    <route edges="212682824#2 -452398495#2 -452398495#1 212682836#1 -212682811 275157752#10 -452398496#1 -212402325#1 -212402325#0 -212402298#2 -212402298#1 -212402298#0 138074615#1 -212402398#1 212402354 -452647828#1 452647828#1"/>
  </vehicle>
  <vehicle id="veh28" depart="28.0" type="electric10">
    <param key="device.battery.chargeLevel" value="58118"/>
    <route edges="212402307#5 -212402307#5 -212402307#4 -212402307#3 -212402307#2 -212402307#1 -E6 -E3 -212691505#4 -212691505#3 -212691505#2 -212691505#1 212691505#1"/>
  </vehicle>
  <vehicle id="veh29" depart="29.0" type="electric1">
    <param key="device.battery.chargeLevel" value="14217"/>
    <route edges="-212682841#5 -212682841#4 -212682841#3 -212682803#3 -212682803#2 -212682803#1 -212682803#0 443957055#3 443957055#4 443957055#5 -212682793"/>
  </vehicle>
  <vehicle id="veh30" depart="30.0" type="electric6">
    <param key="device.battery.chargeLevel" value="43915"/>
    <route edges="212691509#0 -212691492 443957055#7 443957055#9 443957055#10 443957055#11 -444292033#1 -444292033#0 212682800#0 212682800#1 444292029#3 444292022#1 444292022#2 E7 -452398496#1 -452398496#0 -452398504#1 -452398504#0 -137614083#10 -137614083#9 -137614083#8 -137614083#7 -137614083#6 -212682838#4 212682814#1"/>
  </vehicle>
  <vehicle id="veh31" depart="31.0" type="electric20">
    <param key="device.battery.chargeLevel" value="97005"/>
    <route edges="-444292011#8 444292011#8 138074622#2 138074622#3 138074622#5 138074622#6 138074622#8 -444291978#5 -444291978#4 -444291978#2 -E19 E13 -444293150#1 212682782#0 212682782#1 212682841#0 212682841#2 -212682803#3 -212682803#2 -212682803#1 -212682803#0 212701270#0 212701270#1 212701277#1 -212701295#1"/>
  </vehicle>
  <vehicle id="veh32" depart="32.0" type="electric5">
    <param key="device.battery.chargeLevel" value="37124"/>
    <route edges="212402347#0 212402347#1 212402347#2 212402347#3 212402347#5 -452647829#2 -452647829#0 -452647830#1 -452647830#0 212402308#1 212402332#0 212402332#1 460213377#1 460213377#2 -212691505#4 -212691505#3 -212691505#2 212691480#0 212691480#1 212691480#3 1178560322#0 1178560322#1 212691495#5 212691491"/>
  </vehicle>
  <vehicle id="veh33" depart="33.0" type="electric14">
    <param key="device.battery.chargeLevel" value="75265"/>
    <route edges="-212402378#1 212402378#1 -138074615#9 -138074615#7 -138074615#5 -452647829#2 -452647829#0 -452647830#1 -452647830#0 212402308#1 212402332#0 212402332#1 460213377#1 460213377#2 -212691505#4 -212691505#3 -212691505#2 212691480#0 212691480#1 212691480#3 212691480#4 446514658#0 446514658#1 446514658#2 446514658#3 446514658#4 -446514657#1 -446514657#0"/>
  </vehicle>
  <vehicle id="veh34" depart="34.0" type="electric8">
    <param key="device.battery.chargeLevel" value="47685"/>
    <route edges="-212706370#2 212706376#0 212706376#1 212706376#2 -E19 E13 235445423#7 235445423#8 235445423#9 235445423#10 235445423#11 275157761#0 275157761#1 275157761#2 275157761#3 275157761#4 443957054#0 443957054#1 443957054#2 1177345932"/>
  </vehicle>
  <vehicle id="veh35" depart="35.0" type="electric19">
    <param key="device.battery.chargeLevel" value="88681"/>
    <route edges="-212682821#0 138074610#6 138074610#7 -444291978#5 -444291978#4 -444291978#2 -E19 E13 235445423#7 235445423#8 235445423#9 235445423#10 235445423#11 275157761#0 275157761#1 275157761#2 275157761#3 275157761#4 443957054#0 443957054#1"/>
  </vehicle>
  <vehicle id="veh36" depart="36.0" type="electric8">
    <param key="device.battery.chargeLevel" value="49184"/>
    <route edges="-212709045#0 -212709054#6 -212709054#5 212709088#0 212709088#1 -443955351#1 -443955351#0 -138074612 275157759#1 E11 E12 E13 -444293150#1 212682782#0 212682782#1 444293147#1 444293149 444292031 444292035 212682793 443957055#7 443957055#9 443957055#10 212691506#0 212691506#1 -212691484"/>
  </vehicle>
  <vehicle id="veh37" depart="37.0" type="electric12">
    <param key="device.battery.chargeLevel" value="59552"/>
    <route edges="212402302#6 460213377#2 446514652#5 446514652#6 453772980#0 453772980#1 453772980#2 E24 E15 444292022#1 444292022#2 E7 -452398496#1 -452398496#0 452398495#0 452398495#1 452398495#2 452398495#3 -212706376#2 212706376#2"/>
  </vehicle>
  <vehicle id="veh38" depart="38.0" type="electric14">
    <param key="device.battery.chargeLevel" value="73046"/>
    <route edges="-275157761#0 275157761#0 -212682841#4 -212682841#3 -212682803#3 -212682803#2 -212682803#1 -212682803#0 443957055#3 -446514662#9 -446514662#8 -446514662#7 212691505#0 212691505#1 212691505#2 212691505#3 212691505#4 E3 E5 -212402327#7 -212402327#5 -212402327#4 -212402327#3 -212402322#5 -212402322#4"/>
  </vehicle>
  <vehicle id="veh39" depart="39.0" type="electric5">
    <param key="device.battery.chargeLevel" value="31113"/>
    <route edges="212402321 -212402321 452647824#1 212402340 452647829#2 -212402347#5 -212402347#3 -212402347#2 -453772985#2 -212402362#2 -212402362#1 -212402362#0 -212402303#2 -212402303#0 452398498 452398495#0 452398495#1 452398495#2 452398495#3 -212706376#2 -212706376#1 -212706376#0 212706370#2 -E17 212709054#1 212709054#2 212709054#3 212709054#4 212709054#5 212709054#6 212709065#3 212709065#4 212709065#6 -212709066#2 -212709066#1 -212709066#0 212709066#0"/>
  </vehicle>
  <vehicle id="veh40" depart="40.0" type="electric14">
    <param key="device.battery.chargeLevel" value="66068"/>
    <route edges="212402322#1 -212402322#1 212402340 -452647829#0 -452647830#1 -452647830#0 212402308#1 212402308#2"/>
  </vehicle>
  <vehicle id="veh41" depart="41.0" type="electric9">
    <param key="device.battery.chargeLevel" value="46303"/>
    <route edges="212402339#0 212402403#3 212402403#4 212402403#5 212402403#6 212402403#7 -453772984 -212402347#2 -453772985#2 -212402362#2 -212402362#1 -212402362#0 -212402303#2 -212402367#3 -212402367#1 -212402367#0 212402292#5"/>
  </vehicle>
  <vehicle id="veh42" depart="42.0" type="electric20">
    <param key="device.battery.chargeLevel" value="99725"/>
    <route edges="-212682818 -452398500#8 -212682791#1 -212682791#0 138074622#3 138074622#5 138074622#6 138074622#8 -444291978#5 -444291978#4 -444291978#2 -E19 E13 -444293150#1 212682782#0 212682782#1 212682841#0 212682841#2 -212682803#3 -212682803#2 -212682803#1 -212682803#0 -443957055#1 212701295#0 -212701288#1"/>
  </vehicle>
  <vehicle id="veh43" depart="43.0" type="electric12">
    <param key="device.battery.chargeLevel" value="62775"/>
    <route edges="460215281#0 -460215281#0 -212402356#4 -212402356#2 212402356#2"/>
  </vehicle>
  <vehicle id="veh44" depart="44.0" type="electric3">
    <param key="device.battery.chargeLevel" value="28843"/>
    <route edges="-446514658#0 212691478#3 212691478#4 446514652#3 446514652#4 E3 E5 -212402327#7 212402345#0 212402310#4 212402310#5 212402310#6 -212402322#6"/>
  </vehicle>
  <vehicle id="veh45" depart="45.0" type="electric10">
    <param key="device.battery.chargeLevel" value="53022"/>
    <route edges="212709088#2 275157760#1 275157759#0 275157759#1 E11 E12 E13 235445423#7 235445423#8 235445423#9 235445423#10 235445423#11 235445423#12 235445423#13 212682830#0 212682830#1 -1177339960#2 -1177339960#1 1177339958#0 1177339958#1 1177339959 -1177339959"/>
  </vehicle>
  <vehicle id="veh46" depart="46.0" type="electric17">
    <param key="device.battery.chargeLevel" value="82214"/>
    <route edges="-138074595#2 138074595#2 138074595#3 -212682803#0 443957055#3 -446514662#9 -446514662#8 -446514662#7 212691505#0 212691505#1 212691505#2 212691505#3 212691505#4 E3 E5 -212402327#7 212402345#0 212402310#4 212402310#5 212402310#6 212402310#7 -212402393#3 212402393#3"/>
  </vehicle>
  <vehicle id="veh47" depart="47.0" type="electric16">
    <param key="device.battery.chargeLevel" value="83028"/>
    <route edges="-446514662#9 446514662#9 443957055#4 443957055#5 443957055#7 443957055#9 443957055#10 443957055#11 -444292033#1 -444292033#0 212682800#0 212682800#1 444292029#3 444292022#1 444292022#2 E7 -452398496#1 -452398496#0 -452398504#1 -452398504#0 -137614083#10 -137614083#9 -137614083#8 138074610#0 138074610#2 138074610#3 138074610#4 -212682834#6 -212682834#5 -212682823#1"/>
  </vehicle>
  <vehicle id="veh48" depart="48.0" type="electric19">
    <param key="device.battery.chargeLevel" value="88585"/>
    <route edges="212402291#1 -212402383 -212402396#6 -212402396#5 -212402396#4 -212402307#4 -212402380#3 -212402380#2 -212402380#1 -212402380#0 212402328#6 452647828#0 -452647828#0"/>
  </vehicle>
  <vehicle id="veh49" depart="49.0" type="electric6">
    <param key="device.battery.chargeLevel" value="42281"/>
    <route edges="-444291998#2 -444291998#1 -444291996#0 -212706371"/>
  </vehicle>
  <vehicle id="veh50" depart="50.0" type="electric20">
    <param key="device.battery.chargeLevel" value="98778"/>
    <route edges="212402293 -212402347#3 -212402347#2 -453772985#2 -212402362#2"/>
  </vehicle>
  <vehicle id="veh51" depart="51.0" type="electric5">
    <param key="device.battery.chargeLevel" value="39195"/>
    <route edges="-138074615#12 -138074615#11 -138074615#10 -138074615#9 212402319 -452647824#0"/>
  </vehicle>
  <vehicle id="veh52" depart="52.0" type="electric6">
    <param key="device.battery.chargeLevel" value="41072"/>
    <route edges="212706376#0 212706378#1 212706363#1 -212706372#0 -444291984#0 -138074610#7 -138074610#6 138074610#6"/>
  </vehicle>
  <vehicle id="veh53" depart="53.0" type="electric4">
    <param key="device.battery.chargeLevel" value="34009"/>
    <route edges="-212691470#5 -212691470#4 -446514658#6 -446514658#4 -446514658#3 -446514658#2 -446514658#1 -446514658#0 -212691480#4 -212691480#3 -212691480#1 -212691480#0 212691505#2 212691489#0 212691509#3 212691509#4 446514652#6 453772980#0 453772980#1 453772980#2 E24 E15 444292022#1 444292022#2 E7 -452398496#1 -452398496#0 -452398498 212402303#0 -212402394#5"/>
  </vehicle>
  <vehicle id="veh54" depart="54.0" type="electric12">
    <param key="device.battery.chargeLevel" value="66823"/>
    <route edges="1177339958#2 -1177339958#2 -1177339958#1 -1177339958#0 1177339960#1 -212701284#1 -212701284#0 -212701277#1 -212701270#1 -212701288#0 446514662#9 443957055#4 443957055#5 443957055#7 443957055#9 443957055#10 443957055#11 -444292033#1 -444292033#0 212682800#0 212682800#1 444292029#3 444292022#1 444292022#2 E7 -452398496#1 -452398496#0 -452398504#1 -452398504#0 452398503#0 452398503#1 452398503#3 452398503#4 452398503#5 452398503#6 -212706363#2 -212706363#1"/>
  </vehicle>
  <vehicle id="veh55" depart="55.0" type="electric16">
    <param key="device.battery.chargeLevel" value="83573"/>
    <route edges="1181466352#2 -1181466352#2 -1181466352#1 -1181466352#0 -212402381#1 -212402299#4 -212402299#3 -212402299#2 -212402299#0 -137614083#7 -137614083#6 -137614083#5 -137614083#4 -137614083#2 -212682831#3"/>
  </vehicle>
  <vehicle id="veh56" depart="56.0" type="electric8">
    <param key="device.battery.chargeLevel" value="45457"/>
    <route edges="-212709054#3 -212709054#2 -212709054#1 E17 E18 E12 E13 -444293150#1 212682782#0 212682782#1 212682841#0 212682841#2 -212682803#3 -212682803#2 -212682803#1 -212682803#0 212701270#0 212701270#1 212701270#2 212701270#3 -212701270#3"/>
  </vehicle>
  <vehicle id="veh57" depart="57.0" type="electric12">
    <param key="device.battery.chargeLevel" value="64527"/>
    <route edges="-444291998#2 -444291998#1 -444291998#0 212706356#0 -212706360#1 -212706360#0 -212706333#1 -212706333#0 -138074622#6 -138074622#5 -138074622#3 212682791#0 212682791#1 452398500#8 212682818 -212682834#2 444292008#2 444292008#3 444292008#4 -212402330 -212402395#0"/>
  </vehicle>
  <vehicle id="veh58" depart="58.0" type="electric2">
    <param key="device.battery.chargeLevel" value="23897"/>
    <route edges="212402392#0 212402403#7 -453772984 -212402347#2 -453772985#2 -212402362#2 -212402362#1 -212402362#0 -212402303#2 -212402367#3 -212402367#1 -212402367#0 212402292#5 212402292#6 -137614083#10 -137614083#9 -137614083#8 138074610#0 138074610#2 138074610#3 138074610#4 -212682834#6 -212682805#1 -212682805#0 212706333#0 212706333#1 212706333#3 212706333#4 444291994#0 444291994#1 444291994#2 444291989#0"/>
  </vehicle>
  <vehicle id="veh59" depart="59.0" type="electric14">
    <param key="device.battery.chargeLevel" value="70568"/>
    <route edges="444292008#3 -444292008#3 -444292008#2 212682834#2 -212682818 -452398500#8 -212682791#1 -212682791#0 138074622#3 138074622#5 138074622#6 212706333#0 212706333#1 212706360#0 212706360#1 -212706356#0 444291998#0"/>
  </vehicle>
  <vehicle id="veh60" depart="60.0" type="electric16">
    <param key="device.battery.chargeLevel" value="79501"/>
    <route edges="212402364 212402367#3 -212402394#5 -212402394#3 -212402394#2 -212402394#1 -212402394#0 -138074615#2 -138074615#1 212402399#0 212402399#1 212402332#1 460213377#1 460213377#2 -212691505#4 -212691505#3 -212691505#2 212691480#0 212691480#1 212691480#3 212691480#4 446514658#0 446514658#1 446514658#2 446514658#3 212402300#1 212402300#2 -212402300#2"/>
  </vehicle>
  <vehicle id="veh61" depart="61.0" type="electric4">
    <param key="device.battery.chargeLevel" value="33160"/>
    <route edges="-212691509#0 443957055#5 443957055#7 443957055#9 443957055#10 443957055#11 -444292033#1 -444292033#0 212682800#0 212682800#1 444292029#3 444292022#1 444292022#2 E7 -452398496#1 -452398496#0 -452398504#1 -452398504#0 -137614083#10 -137614083#9 -137614083#8 138074610#0 138074610#2 138074610#3 138074610#4 138074610#5 212682821#0"/>
  </vehicle>
  <vehicle id="veh62" depart="62.0" type="electric8">
    <param key="device.battery.chargeLevel" value="42018"/>
    <route edges="137614083#2 -444292008#4 -444292008#3 -444292008#2 -444292008#1 -444292008#0 -444292011#8 -444292011#7 212706373#0 212706365#0 212706365#1"/>
  </vehicle>
  <vehicle id="veh63" depart="63.0" type="electric15">
    <param key="device.battery.chargeLevel" value="78849"/>
    <route edges="-212402307#0 212402307#0 -E6 -E3 446514652#5 446514652#6 453772980#0 453772980#1 453772980#2 E24 E15 444292022#1 444292022#2 E7 -452398496#1 -452398496#0 -452398504#1 -452398504#0 -137614083#10 -137614083#9 -137614083#8 -137614083#7 -137614083#6 -212682838#4 -212682838#3 -212682838#2 -212682838#1 -212682838#0 -212706353#1 -212706357#0"/>
  </vehicle>
  <vehicle id="veh64" depart="64.0" type="electric7">
    <param key="device.battery.chargeLevel" value="40219"/>
    <route edges="212402297#0 212402297#1 212402297#2 212402297#3 212402297#4 212402395#0 212402330 -444292008#4 -444292008#3 -444292008#2 212682834#2 -212682818 -452398500#8 -212682791#1 -212682791#0 138074622#3 138074622#5 138074622#6 212706333#0 212706333#1 212706360#0 212706360#1 212706356#1"/>
  </vehicle>
  <vehicle id="veh65" depart="65.0" type="electric15">
    <param key="device.battery.chargeLevel" value="72085"/>
    <route edges="-212402375#0 -453772974#1 212402335#0 212402335#1 -138074615#10 -138074615#9 -138074615#7 -138074615#5 -452647829#2 -452647829#0 -452647830#1 -452647830#0 212402308#1 212402332#0 212402332#1 460213377#1 460213377#2 -212691505#4 -212691505#3 -212691505#2 212691480#0 212691480#1 212691480#3 212691480#4 446514658#0 446514658#1 446514658#2 446514658#3 446514658#4 -446514657#1 212691487#0 212691470#3"/>
  </vehicle>
  <vehicle id="veh66" depart="66.0" type="electric10">
    <param key="device.battery.chargeLevel" value="51326"/>
    <route edges="212709088#0 212709088#1 -443955351#1 -443955351#0 -138074612 275157759#1 E11 E12 E13 -444293150#1 212682782#0 212682782#1 444293147#1 444293149 444292031 444292035 212682793 443957055#7 443957055#9 443957055#10 212691506#0 212691506#1 -212691506#1"/>
  </vehicle>
  <vehicle id="veh67" depart="67.0" type="electric16">
    <param key="device.battery.chargeLevel" value="76365"/>
    <route edges="-444292003#1 444292011#4 444292011#5 444292011#7 444292011#8 444292008#0 444292008#1 444292008#2 444292008#3 444292008#4 137614083#4 137614083#5 137614083#6 137614083#7 137614083#8 137614083#9 137614083#10 -212402292#6 -212402292#5 212402367#0 212402367#1 212402367#3 212402303#2 212402362#0 212402362#1 212402362#2 453772985#2 212402347#2 453772984 -212402403#7 -212402403#6 -212402403#5 -212402403#4 -212402403#3 212402339#1"/>
  </vehicle>
  <vehicle id="veh68" depart="68.0" type="electric13">
    <param key="device.battery.chargeLevel" value="64118"/>
    <route edges="212402292#2 212402292#3 212402367#0 212402367#1 212402367#3 -212402303#0 452398498 452398496#0 452398496#1 -E7 212682790#0 -212682839#1 -212682839#0 -444292029#1 212682828#0 -138074595#5 212682793 -443957055#5 -443957055#4 -446514662#9 212701288#0 212701270#1 212701277#1 212701284#0 212701284#1 1177339960#2"/>
  </vehicle>
  <vehicle id="veh69" depart="69.0" type="electric9">
    <param key="device.battery.chargeLevel" value="47410"/>
    <route edges="1181466356 444292008#1 444292008#2 444292008#3 444292008#4 137614083#4 137614083#5 137614083#6 137614083#7 137614083#8 137614083#9 137614083#10 452398504#0 452398504#1 -452398498 212402333#0 -212402402#0"/>
  </vehicle>
  <vehicle id="veh70" depart="70.0" type="electric11">
    <param key="device.battery.chargeLevel" value="57393"/>
    <route edges="444291984#4 -444291984#4 -444291984#2 -444291984#1 -444291984#0 -138074622#8 -138074622#6 -138074622#5 -138074622#3 212682791#0 1181466356"/>
  </vehicle>
  <vehicle id="veh71" depart="71.0" type="electric12">
    <param key="device.battery.chargeLevel" value="64998"/>
    <route edges="-212402298#2 212402298#2 212402325#0 212402325#1 -452398496#0 452398495#0 452398495#1 452398495#2 452398495#3 -212706376#2 -212706376#1 212706378#1"/>
  </vehicle>
  <vehicle id="veh72" depart="72.0" type="electric20">
    <param key="device.battery.chargeLevel" value="98306"/>
    <route edges="443957054#0 -212701284#0 -212701277#1 -212701270#1 -212701288#0 446514662#9 443957055#4 443957055#5 443957055#7 443957055#9 443957055#10 443957055#11 -444292033#1 -444292033#0 212682800#0 212682800#1 444292029#3 444292022#1 444292022#2 E7 -452398496#1 -452398496#0 -452398504#1 -452398504#0 -137614083#10 -137614083#9 -137614083#8 138074610#0 138074610#2 138074610#3 138074610#4 -212682834#6 -212682805#1 -212682805#0 212706333#0 212706333#1"/>
  </vehicle>
  <vehicle id="veh73" depart="73.0" type="electric4">
    <param key="device.battery.chargeLevel" value="32664"/>
    <route edges="212706364#2 212706370#0 212706363#0 212706363#1 212706363#2 -444291978#2 -E19 E13 235445423#7 235445423#8 235445423#9 235445423#10 235445423#11 235445423#12 235445423#13 212682830#0 212682830#1 -1177339960#2 -1177339960#1 -1177339960#0 212701292#1 212701280"/>
  </vehicle>
  <vehicle id="veh74" depart="74.0" type="electric7">
    <param key="device.battery.chargeLevel" value="45524"/>
    <route edges="-212691495#5 -212691495#3 -212691495#2 -212691495#1 -212691495#0 -212691505#0 1178560324 -212691492 443957055#7 -212682828#2"/>
  </vehicle>
  <vehicle id="veh75" depart="75.0" type="electric20">
    <param key="device.battery.chargeLevel" value="96872"/>
    <route edges="212402301#1 -212402301#1 -212402396#5 -212402396#4 -212402307#4 -212402380#3 -212402380#2 -212402380#1 -212402380#0 212402328#6 452647828#0 452647828#1 -212402354 212402398#1 138074615#2 212402394#0 212402394#1 212402394#2 212402394#3 212402394#5 -212402367#3 -212402367#1 -212402367#0 -212402292#3 212402292#3"/>
  </vehicle>
  <vehicle id="veh76" depart="76.0" type="electric10">
    <param key="device.battery.chargeLevel" value="57059"/>
    <route edges="212402358#1 212402358#2 212402304#3 212402314 -212402301#2 212402377#0 212402377#1 212402291#1 212402291#2 E10 E14 212691470#0 212691470#1 -212691470#1"/>
  </vehicle>
  <vehicle id="veh77" depart="77.0" type="electric7">
    <param key="device.battery.chargeLevel" value="40606"/>
    <route edges="-453772983#0 212402347#5 -452647829#2 -452647829#0 212402384#0 -212402384#0"/>
  </vehicle>
  <vehicle id="veh78" depart="78.0" type="electric19">
    <param key="device.battery.chargeLevel" value="95311"/>