<?xml version="1.0" ?>
<routes>
  <vehicle id="veh1" depart="1.0" type="electric18">
    <param key="device.battery.chargeLevel" value="85947"/>
    <route edges="452398500#1 212682826#1 212682824#0 212682824#1 212682824#2 452398495#3 -212706376#2 -212706376#1 -212706376#0 212706370#2 212706370#3 212706370#4 212709054#0 212709054#1 212709054#2 212709054#3 212709054#4 212709054#5 212709054#6 -212709065#1 212709081#0 -212709081#0 212709065#1 -212709054#6 -212709054#5 212709088#0 212709088#1 -443955351#1 -443955351#0 -138074612 275157759#1 275157759#2 460215284#0 460215284#1 460215284#2 460215284#3 460215284#4 460215284#5 460215284#6 460215284#7 460215284#8 460215284#9 444291978#0 -444291978#0 235445423#0 235445423#1 235445423#2 235445423#3 235445423#4 235445423#5 235445423#6 -444293150#1 212682782#0 212682782#1 212682841#0 212682841#2 -212682803#3 -212682803#2 -212682803#1 -212682803#0 443957055#3 -446514662#9 -446514662#8 -446514662#7 212691505#0 212691495#0 212691490 212691480#1 212691480#3 1178560322#0 1178560322#1 -212691495#3 212691477 -212701295#7 -446514653 -212701270#3 -212701270#2 -212701277#0 -446514662#7 212691505#0 212691505#1 212691505#2 212691505#3 212691505#4 460213377#3 212402307#0 -212402323 212402310#2 212402310#3 212402310#4 212402310#5 212402310#6 212402310#7 -212402393#3 -460210278 212410102#3 212410102#4 212410102#5 659351468#0 659351468#1 659351468#2 659351468#3 659351468#4 -212410146#0 457106272#5 457106272#6 457106272#7 457106272#9 457106272#10 215013303 -215013303 -457106272#10 -457106272#9 -659351466#5 -659351466#4 -659351466#3 -659351466#2 -659351466#1 -659351466#0 -212410130#0 417805171#1 263520336#5 263520336#6 -460210276 212402327#1 212402327#2 -212402322#5 -212402322#4 212402328#2 212402328#4 -212402385#1 212402400#2 -E0 212402332#0 -212402399#1 -212402399#0 -138074615#0 460213970#9 460213970#10 460213970#0 460213970#1 460213970#2 460213970#3 460213970#4 460213970#5 460213970#6 460213970#7 460213970#8 138074615#0 E2 138074615#3 138074615#5 212402322#0 -452647824#1 212402321 -E14 212402393#0 212402393#1 212402393#2 -460210278 212410102#3 212410102#4 212410102#5 659351468#0 659351468#1 -659351468#1 -659351468#0 -212410102#5 -212410102#4 -212410102#3 417805171#2 417805171#3 -446823214#2 -446823214#0 212402322#8 -212402307#5 -212402307#4 -212402307#3 -212402307#2 -212402307#1 -212402323 212402310#2 212402310#3 212402310#4 212402310#5 212402310#6 212402310#7 -212402393#3 -460210278 212410102#3 212410102#4 212410102#5 659351468#0 659351468#1 659351468#2 659351468#3 -212410104#5 -212410104#3 -212410104#2 -212410104#1 -212410104#0 659351467#4 659351467#5 -457106272#14 -457106272#13 457106272#13 457106272#14 -659351467#5 -659351467#4 -659351467#3 -659351467#2 -659351467#1 -659351467#0 -212410130#0 417805171#1 263520336#5 263520336#6 -460210276 212402327#1 212402327#2 -212402322#5 -212402322#4 212402328#2 212402328#4 -212402385#1 212402400#2 -E0 212402332#0 -212402399#1 -212402399#0 212402298#0 212402298#1 -212402313 453772985#0 212402394#2 212402394#3 212402402#0 -212402333#0 452398498 452398495#0 452398495#1 452398495#2 452398495#3 -212706376#2 -212706376#1 -212706376#0 212706370#2 212706370#3 212706370#4 212709054#0 212709054#1 212709054#2 212709054#3 212709054#4 212709054#5 212709054#6 212709065#3 212709065#4 212709065#6 -212709066#2 -212709066#1 -212709066#0"/>
  </vehicle>
  <vehicle id="veh2" depart="2.0" type="electric16">
    <param key="device.battery.chargeLevel" value="74905"/>
    <route edges="212701274#2 -212701274#2 -212701274#1 212701296#0 -212701279#1 -212701279#0 -212691475 -1178560322#1 -1178560322#0 -212691480#3 -212691480#1 -212691480#0 212691505#2 212691489#0 212691509#3 212691509#4 446514652#6 453772980#0 453772980#1 453772980#2 453772980#3 460213970#3 460213970#4 460213970#5 460213970#6 460213970#7 460213970#8 138074615#0 E2 138074615#3 138074615#5 138074615#7 138074615#9 138074615#10 -212402335#1 -212402403#4 -212402403#3 -212402339#0 453772974#3 -212402338#0 689087847#0 -689087847#0 212402338#0 -453772974#3 -453772974#2 -453772974#1 -453772974#0 713153658 -453772978#4 -453772978#3 -453772978#2 -453772978#1 -212402362#0 -212402303#2 -212402303#0 452398498 452398496#0 452398496#1 444293146#0 444293146#1 444293146#2 -212682837#3 -212682837#2 -444293148#2 212682790#2 -460219337#1 460219337#1 444293147#1 444293149 444292031 444292035 212682793 443957055#7 443957055#9 443957055#10 443957055#11 443957055#12 460213970#4 460213970#5 460213970#6 460213970#7 460213970#8 138074615#0 E2 138074615#3 138074615#5 138074615#7 212402319 212402321 -E14 212402393#0 212402393#1 212402393#2 -460210278 460210278 -212402393#2 -212402393#1 212402327#2 -212402322#5 -212402322#4 212402328#2 212402328#4 -212402385#1 212402400#2 -E0 -E3 212402394#0 212402394#1 212402394#2 212402394#3 212402394#5 -212402367#3 -212402367#1 -212402367#0 212402292#5 212402292#6 -137614083#10 -137614083#9 -137614083#8 -137614083#7 -137614083#6 -137614083#5 -137614083#4 -444292008#4 -444292008#3 212682816#0 -212682838#2 212682834#4 212682834#5 212682834#6 138074610#5 138074610#6 138074610#7 444291984#0 444291984#1 444291984#2 212706370#0 212706370#1 212706370#2 212706370#3 212706370#4 212709054#0 212709054#1 212709054#2 212709054#3 212709054#4 212709054#5 212709054#6 -212709065#1 -212709065#0 212709065#0 212709065#1 -212709054#6 -212709054#5 212709088#0 212709088#1 -443955351#1 -443955351#0 -138074612 275157759#1 275157759#2 460215284#0 460215284#1 460215284#2 460215284#3 460215284#4 460215284#5 460215284#6 460215284#7 460215284#8 460215284#9 444291978#0 -452398495#3 -452398495#2 -452398495#1 212682836#1 -212682811 275157752#10 460214435#0 460214435#1 460214435#2 -453772983#2 212402298#1 -212402313 453772985#0 212402394#2 212402394#3 453772978#0 -212402362#0 -212402303#2 -212402367#3 -212402367#1 -212402367#0 -212402292#3 -212402311#2 -212402299#2 -212402299#0 138074610#0 138074610#2 138074610#3 138074610#4 -212682834#6 -212682834#5 -212682823#1 -212682823#0 -138074622#5 212682838#0 212682838#1 212682838#2 212682816#1"/>
  </vehicle>
  <vehicle id="veh3" depart="3.0" type="electric11">
    <param key="device.battery.chargeLevel" value="57398"/>
    <route edges="444291984#6 -444291984#6 -444291984#5 -444291984#4 -444291984#2 -444291984#1 -444291984#0 -138074610#7 -138074610#6 -138074610#5 -138074610#4 -138074610#3 -138074610#2 -138074610#0 137614083#8 137614083#9 137614083#10 -212402292#6 -212402292#5 212402367#0 212402367#1 212402367#3 -212402394#5 -212402394#3 -212402394#2 -212402394#1 -453772983#0 212402347#5 138074615#5 138074615#7 212402319 212402321 453772971#1 212402322#2 212402322#3 212402322#4 212402322#5 212402327#3 212402327#4 212402327#5 212402345#0 -212402310#3 212402318 -212402307#1 -212402307#0 212402307#0 -212402323 212402310#2 212402310#3 212402310#4 212402310#5 212402310#6 212402310#7 -212402393#3 -460210278 212410102#3 212410102#4 212410102#5 659351468#0 659351468#1 659351468#2 659351468#3 -212410104#5 -212410104#3 -212410104#2 -212410104#1 -212410104#0 -659351467#3 -659351467#2 -659351467#1 -659351467#0 -212410130#0 417805171#1 263520336#5 263520336#6 -460210276 212402327#1 212402327#2 -212402322#5 -212402322#4 -212402322#3 -212402322#2 -212402322#1 212402322#1 -212402322#1 -212402322#0 138074615#7 138074615#9 138074615#10 138074615#11 138074615#12 138074615#13 138074615#14 138074615#15 138074615#16 138074615#18 138074615#20 -460207321#0 460207322#0 460207322#2 212410116 659351467#1 -659351467#1 -659351467#0 -212410130#0 417805171#1 263520336#5 263520336#6 -460210276 212402327#1 212402327#2 212402327#3 212402327#4 212402327#5 212402327#7 -212402329 212402302#5 212402302#6 460213377#2 -212691505#4 -212691505#3 -212691505#2 212691480#0 212691480#1 212691480#3 1178560322#0 1178560322#1 212691475 212701279#0 212701279#1 -212701296#0 -212701274#0 -1178404910#1 -212701279#0 446514662#3 -212701295#7 -446514653 -212701270#3 -212701270#2 -212701270#1 -212701270#0 212682803#0 -138074595#3 138074595#3 138074595#4 138074595#5 -212682828#0 444292029#1 444292029#2 444292029#3 444292022#1 444292022#2 444292022#3 444292022#4 444292022#5 -452398496#1 -452398496#0 -452398498 212402303#0 212402303#2 -212402303#2 -212402394#5 -212402394#3 -212402394#2 -212402394#1 -212402394#0 -E2 -138074615#0 460213970#9 460213970#10 460213970#0 460213970#1 460213970#2 460213970#3 -443957055#12 -443957055#11 212691506#0 212691506#1 212691506#2 212691506#3 212691506#4 -212691509#3 212691509#3 212691509#4 446514652#6 453772980#0 453772980#1 453772980#2 453772980#3 460213970#3 460213970#4 460213970#5 460213970#6 460213970#7 460213970#8 138074615#0 E2 212402394#0 212402394#1 212402394#2 212402394#3 212402394#5 212402303#2 -212402303#2 -212402367#3 -212402367#1 -212402367#0 -212402334 -212402395#2 -212402395#1 -212402395#0"/>
  </vehicle>
  <vehicle id="veh4" depart="4.0" type="electric9">
    <param key="device.battery.chargeLevel" value="46516"/>
    <route edges="-446514662#1 446514662#1 -212691475 -1178560322#1 -1178560322#0 -212691480#3 -212691480#1 -212691480#0 212691505#2 212691505#3 212691505#4 460213377#3 212402307#0 -212402323 212402310#2 212402310#3 -212402345#0 -212402327#5 -212402327#4 -212402327#3 -212402327#2 212402393#1 -212402393#1 212402327#2 -212402322#5 -212402322#4 212402328#2 212402328#4 -212402385#1 212402400#2 -E0 212402332#0 -212402399#1 -212402399#0 -138074615#0 460213970#9 460213970#10 460213970#0 460213970#1 460213970#2 460213970#3 460213970#4 460213971#0 212682844 444292033#1 443957055#12 460213970#4 460213970#5 460213970#6 460213970#7 460213970#8 138074615#0 E2 138074615#3 138074615#5 138074615#7 138074615#9 138074615#10 138074615#11 138074615#12 138074615#13 138074615#14 138074615#15 138074615#16 138074615#18 138074615#20 -460207321#0 460207322#0 460207322#2 417805171#0 212410130#0 -212410130#0 417805171#1 263520336#5 263520336#6 -460210276 212402327#1 212402327#2 -212402322#5 -212402322#4 212402328#2 212402328#4 -212402385#1 212402400#2 -E0 -E3 212402394#0 212402394#1 212402394#2 212402394#3 212402394#5 -212402367#3 -212402367#1 -212402367#0 212402292#5 212402292#6 -137614083#10 -137614083#9 -137614083#8 138074610#0 138074610#2 138074610#3 138074610#4 -212682834#6 -212682805#1 -212682805#0 212706333#0 212706333#1 212706360#0 212706360#1 -212706356#0 444291998#0 -444291998#0 212706356#0 212706356#1 212706372#0 212706363#2 -444291978#2 -444291978#0 235445423#0 235445423#1 235445423#2 235445423#3 235445423#4 235445423#5 235445423#6 235445423#7 235445423#8 235445423#9 235445423#10 235445423#11 235445423#12 235445423#13 235445423#14 235445423#15 275157770#0 275157770#2 443957055#0 212701295#0 212701295#1 212701295#3 -212701291#2 -212701291#1 -212701291#0 212691505#0 212691505#1 212691505#2 212691505#3 212691505#4 460213377#3 212402307#0 -212402323 212402310#2 212402310#3 212402310#4 212402310#5 212402310#6 212402310#7 -212402393#3 -460210278 212410102#3 212410102#4 212410102#5 -212410133#5 -212410133#4 -212410111 212410111 212410133#4 212410133#5 -212410102#5 -212410102#4 -212410102#3 263520336#5 263520336#6 -460210276 212402327#1 212402327#2 -212402322#5 -212402322#4 -212402322#3 -212402322#2 -212402322#1 -212402322#0 -453772972#2 -453772972#1 -453772972#0 453772978#3 -453772978#3 -453772978#2 -453772978#1 -212402362#0 -212402303#2 -212402303#0 452398498 452398495#0 452398495#1 452398495#2 452398495#3 -212706376#2 -212706376#1 -212706376#0 212706370#2 212706370#3 212706370#4 212709054#0 212709054#1 212709054#2 212709079#0 443955352 212709088#1 443955351#2 -443955351#2 -443955351#1 -443955351#0 -138074612 275157759#1 275157759#2 460215284#0 460215284#1 460215284#2 460215284#3 460215284#4 460215284#5 460215284#6 460215284#7 460215284#8 460215284#9 444291978#0 -444291978#0 235445423#0 235445423#1 235445423#2 235445423#3 235445423#4 235445423#5 235445423#6 235445423#7 235445423#8 235445423#9 235445423#10 235445423#11 235445423#12 235445423#13 212682830#0 -138074595#0 138074595#0 212682830#1 275157770#2 443957055#0 212701295#0 212701295#1 212701295#3 -212701291#2 -212701291#1 -212701291#0 212691505#0 212691505#1 212691505#2 212691505#3 212691505#4 460213377#3 212402307#0 -212402323 212402310#2 212402310#3 212402310#4 212402310#5 212402310#6 212402310#7 -212402393#3 212402393#3 -212402310#7 -212402310#6 -212402310#5 -212402310#4 -212402345#0 212402327#7 -212402329 212402302#5 212402302#6 460213377#2 -212691505#4 -212691505#3 -212691505#2 -212691505#1 -212691505#0 212701291#0 212701291#1 212701291#2 -212701295#3 212701284#0 212701284#1 -1177339960#1 1177339958#0 1177339958#1 1177339958#2"/>
  </vehicle>
  <vehicle id="veh5" depart="5.0" type="electric3">
    <param key="device.battery.chargeLevel" value="22233"/>
    <route edges="-212402371#0 -212402292#5 212402367#0 212402367#1 212402367#3 -212402394#5 -212402394#3 -212402394#2 -212402394#1 -212402394#0 -E2 -138074615#0 460213970#9 460213970#10 460213970#0 460213970#1 460213970#2 460213970#3 -443957055#12 -443957055#11 -443957055#10 -443957055#9 -443957055#7 -443957055#5 -443957055#4 -446514662#9 212701288#0 212701270#1 212701277#1 212701284#0 212701284#1 -1177339960#1 1177339958#0 1177339958#1 -1177339958#1 212701271#0 212701292#3 -212701292#3 -212701292#2 -212701292#1 -212701292#0 -443957054#1 -212701284#0 -212701277#1 -212701270#1 -212701288#0 446514662#9 443957055#4 443957055#5 443957055#7 443957055#9 443957055#10 443957055#11 443957055#12 460213970#4 460213970#5 460213970#6 460213970#7 460213970#8 138074615#0 E2 138074615#3 138074615#5 138074615#7 138074615#9 138074615#10 -212402335#1 -212402403#4 -212402403#3 -212402339#0 453772974#3 212402338#1 -212402403#1 -212402403#0 212402348#1 138074615#16 212402294#0 212402294#1 -212402294#1 -212402294#0 -138074615#16 -138074615#15 -138074615#14 -138074615#13 -138074615#12 -138074615#11 -138074615#10 -138074615#9 -138074615#7 212402322#0 -E12 E13 -212402347#5 453772983#0 212402394#1 212402394#2 212402394#3 212402402#0 -212402333#0 452398498 452398495#0 452398495#1 452398495#2 452398495#3 -212706376#2 -212706376#1 -212706378#0 275157752#4 275157752#5 460215284#9 444291978#0 -444291978#0 235445423#0 235445423#1 235445423#2 235445423#3 235445423#4 235445423#5 235445423#6 235445423#7 235445423#8 235445423#9 235445423#10 235445423#11 275157761#0 275157761#1 275157761#2 212682783#0 -212682803#1 -212682803#0 443957055#3 -446514662#9 -446514662#8 -446514662#7 212691505#0 212691505#1 212691505#2 212691505#3 212691505#4 460213377#3 212402307#0 -212402323 212402310#2 212402310#3 212402310#4 212402310#5 212402310#6 212402310#7 -212402393#3 -460210278 212410102#3 212410102#4 -212410102#4 -212410102#3 263520336#5 263520336#6 -460210276 212402327#1 212402327#2 -212402322#5 -212402322#4 212402328#2 212402328#4 -212402385#1 212402400#2 -E0 212402332#0 -212402399#1 -212402399#0 212402298#0 212402298#1 212402298#2 212402325#0 212402325#1 -452398496#0 452398495#0 452398495#1 452398495#2 452398495#3 -212706376#2 -212706376#1 -212706376#0 212706370#2 212706370#3 212706370#4 212709054#0 212709069 275157759#2 460215284#0 460215284#1 460215284#2 460215284#3 460215284#4 460215284#5 212682785#5 212682785#6 212682785#7 275157739#1 -212709051 460215284#1 460215284#2 460215284#3 460215284#4 460215284#5 460215284#6 460215284#7 460215284#8 460215284#9 444291978#0 -452398495#3 -452398495#2 -452398495#1 -452398495#0 -452398498 212402333#0 -212402402#0 -212402394#3 -212402394#2 -212402394#1 -453772983#0 212402347#5 138074615#5 138074615#7 138074615#9 138074615#10 138074615#11 138074615#12 138074615#13 -138074615#13 -138074615#12 -138074615#11 -138074615#10 -138074615#9 -138074615#7 -138074615#5 -212402347#5 453772983#0 212402394#1 212402394#2 212402394#3 212402394#5 -212402367#3 -212402367#1 -212402367#0 212402292#5 212402292#6 452398503#0 452398503#1 452398503#3 -212682821#2 212682826#0 212682826#1"/>
  </vehicle>
  <vehicle id="veh6" depart="6.0" type="electric5">
    <param key="device.battery.chargeLevel" value="34700"/>
    <route edges="-138074615#5 -212402347#5 453772983#0 212402394#1 -453772985#0 212402313 212402298#2 212402325#0 212402325#1 452398496#1 444293146#0 444293146#1 444293146#2 -212682839#2 -212682790#0 444292022#3 444292022#4 444292022#5 -452398496#1 -452398496#0 -452398504#1 -452398504#0 -137614083#10 -137614083#9 -137614083#8 138074610#0 138074610#2 138074610#3 138074610#4 138074610#5 138074610#6 138074610#7 -444291978#5 212682825#0 212682825#1 212682825#2 212682821#1 212682821#2 -452398503#3 212682794 212682836#0 212682836#1 -212682811 275157752#10 460214435#0 460214435#1 460214435#2 460214435#3 460213970#8 460213970#9 460213970#10 460213970#0 460213970#1 460213970#2 460213970#3 -443957055#12 -443957055#11 212691506#0 212691506#1 212691506#2 212691506#3 212691506#4 -212691509#3 -212691489#0 -212691505#2 212691480#0 212691480#1 -212691480#1 -212691480#0 212691505#2 212691489#0 212691509#3 212691509#4 446514652#6 453772980#0 453772980#1 453772980#2 453772980#3 460213970#3 460213970#4 460213971#0 460213971#1 444292022#0 444292022#1 444292022#2 444292022#3 444292022#4 444292022#5 -452398496#1 -452398496#0 452398495#0 452398495#1 452398495#2 452398495#3 -452398495#3 452398495#3 -444291978#0 235445423#0 235445423#1 235445423#2 235445423#3 235445423#4 235445423#5 235445423#6 -444293150#1 212682782#0 212682782#1 444293147#1 444293149 444292031 444292035 212682793 212691492 212691509#1 212691509#2 -212691489#0 212691505#3 212691505#4 460213377#3 212402307#0 212402307#1 212402307#2 212402307#3 212402307#4 212402396#4 212402304#1 212402304#2 212402304#3 212402314 212402301#3 212402301#8 212410134#0 -205687669#6 -205687668#1 205687674 -205687674 205687668#1 205687669#6 -212410134#0 -212402301#8 -212402301#3 -212402314 -212402304#3 -212402358#2 -212402358#1 -212402358#0 -446823214#0 -212402322#7 -212402310#6 -212402396#2 -212402396#1 -212402396#0 212402328#4 -212402385#1 212402400#2 -E0 -E3 212402394#0 212402394#1 212402394#2 212402394#3 212402394#5 -212402367#3 -212402367#1 -212402367#0 212402292#5 212402292#6 -137614083#10 -137614083#9 -137614083#8 138074610#0 138074610#2 138074610#3 138074610#4 138074610#5 138074610#6 138074610#7 444291984#0 444291984#1 444291984#2 212706370#0 212706363#0 212706363#1 212706363#2 -452398503#6 -452398503#5 -452398503#4 -452398503#3 -452398503#1 -452398503#0 -212402292#6 -212402292#5 212402367#0 212402367#1 212402367#3 -212402394#5 -212402394#3 -212402394#2 -212402394#1 -453772983#0 212402347#5 138074615#5 138074615#7 138074615#9 138074615#10 138074615#11 138074615#12 138074615#13 E23 E39 E40 E17 E18 -E52 -E51 -E50 -E49 -E48 -E47 212402328#0 212402393#0 212402393#1 212402393#2 -460210278 212410102#3 212410102#4 -212410102#4 -212410102#3 263520336#5 263520336#6 -460210276 212402327#1 212402327#2 -212402322#5 -212402322#4 212402328#2 212402328#4 -212402385#1 212402400#2 -E0 212402332#0 -212402399#1 -212402399#0 212402298#0 212402298#1 212402298#2 212402325#0 212402325#1 452398496#1 444293146#0 444293146#1 444293146#2 -212682839#2 -212682790#0 444292022#3 444292022#4 444292022#5 -452398496#1 -452398496#0 -452398504#1 -452398504#0 -137614083#10 -137614083#9 -137614083#8 -137614083#7 -1181466354"/>
  </vehicle>
  <vehicle id="veh7" depart="7.0" type="electric8">
    <param key="device.battery.chargeLevel" value="51533"/>
    <route edges="-453772978#6 -453772978#5 -453772978#4 -453772978#3 -453772978#2 -453772978#1 -212402362#0 -212402303#2 -212402303#0 452398498 452398496#0 452398496#1 444293146#0 444293146#1 444293146#2 -212682837#3 -212682802#1 -212682802#0 444293150#0 -444293150#0 212682802#0 212682802#1 212682837#3 -212682839#2 -212682790#0 444292022#3 444292022#4 444292022#5 -452398496#1 -452398496#0 -452398504#1 -452398504#0 -137614083#10 -137614083#9 -137614083#8 -137614083#7 -137614083#6 -137614083#5 -137614083#4 137614083#4 137614083#5 137614083#6 137614083#7 137614083#8 137614083#9 137614083#10 -212402292#6 -212402292#5 212402367#0 212402367#1 212402367#3 -212402394#5 -212402394#3 -212402394#2 -212402394#1 -212402394#0 E3 E0 -452647828#0 -212402328#6 212402380#0 212402380#1 212402380#2 212402380#3 212402307#4 212402396#4 212402396#5 -212402396#5 -212402396#4 -212402307#4 -212402380#3 -212402380#2 -212402380#1 -212402380#0 -212402385#1 212402400#2 -E0 212402332#0 -212402399#1 -212402399#0 212402298#0 212402298#1 212402298#2 212402325#0 212402325#1 452398496#1 444293146#0 444293146#1 444293146#2 -212682837#3 -212682802#1 -460215280 460215280 212682802#1 212682837#3 -212682839#2 -212682790#0 444292022#3 444292022#4 444292022#5 -452398496#1 -452398496#0 -452398504#1 -452398504#0 -137614083#10 -137614083#9 -137614083#8 138074610#0 138074610#2 138074610#3 138074610#4 -212682834#6 -212682805#1 212682805#1 212682834#6 -138074610#4 -138074610#3 -138074610#2 -138074610#0 137614083#8 137614083#9 137614083#10 -212402292#6 -212402292#5 212402367#0 212402367#1 212402367#3 -212402394#5 -212402394#3 -212402394#2 -212402394#1 -453772983#0 212402347#5 138074615#5 138074615#7 138074615#9 138074615#10 138074615#11 138074615#12 138074615#13 -212402338#2 212402403#2 212402403#3 212402403#4 212402335#1 -138074615#10 -138074615#9 212402319 212402321 -E14 212402393#0 212402393#1 212402393#2 212402393#3 212402393#4 212402358#0 212402358#1 212402358#2 212402304#3 212402314 -212402301#2 212402377#0 212402377#1 -212402291#0 460211162#1 460211162#2 -212402301#3 -212402314 -212402304#3 -212402358#2 -212402358#1 -212402358#0 -446823214#0 -212402322#7 -212402310#6 -212402396#2 -212402396#1 -212402396#0 212402328#4 -212402385#1 212402400#2 -E0 -E3 212402394#0 212402394#1 212402394#2 212402394#3 212402394#5 -212402367#3 -212402367#1 -212402367#0 212402292#5 212402292#6 -137614083#10 -137614083#9 -137614083#8 -137614083#7 -137614083#6 -137614083#5 -137614083#4 -137614083#2 -212682831#3 -212682831#2 -212682831#1 -212682831#0 138074622#1 138074622#2 138074622#3 138074622#5 138074622#6 138074622#8 444291984#0 444291984#1 444291984#2 -444291984#2 -444291984#1 -212706356#1 -212706360#1 -212706360#0 -212706373#3 -444292000#3 -444292000#2 444292000#2 444292000#3 212706373#3 212706360#0 212706360#1 212706356#1 444291984#1 444291984#2 212706370#0 212706370#1 212706370#2 212706370#3 212706370#4 212709054#0 212709054#1 212709054#2 212709054#3 212709054#4 212709054#5 212709054#6 212709065#3 212709065#4 700564920#0 700564920#1 -700564920#1"/>
  </vehicle>
  <vehicle id="veh8" depart="8.0" type="electric19">
    <param key="device.battery.chargeLevel" value="89436"/>
    <route edges="205687665#0 696089015 -205687669#3 -205687669#2 -205687669#1 -205687669#0 138312727#1 660036924 446514664#0 212691470#0 212691470#1 212691470#2 212691470#3 212691470#4 138074601#1 -138074601#1 -212691470#4 -446514658#6 -446514658#4 -446514658#3 -446514658#2 -446514658#1 -446514658#0 -212691480#4 -212691480#3 -212691480#1 -212691480#0 212691505#2 212691489#0 212691509#3 212691509#4 446514652#6 453772980#0 453772980#1 453772980#2 453772980#3 460213970#3 460213970#4 460213970#5 460213970#6 460213970#7 460213970#8 460213970#9 460213377#0 -212402332#1 -212402332#0 E0 -452647828#0 -212402328#6 212402380#0 -212402380#0 -212402385#1 212402400#2 -E0 212402332#0 -212402399#1 -212402399#0 -138074615#0 460213970#9 460213970#10 460213970#0 460213970#1 460213970#2 460213970#3 -443957055#12 -443957055#11 -443957055#10 -443957055#9 -443957055#7 -212682793 -444292035 -444292031 -444293149 -444293147#1 444293147#1 444293149 444292031 444292035 212682793 212691492 212691509#1 212691509#2 -212691489#0 212691505#3 212691505#4 460213377#3 212402307#0 -212402323 212402310#2 212402310#3 212402310#4 212402310#5 212402310#6 212402310#7 -212402393#3 212402393#3 -212402310#7 -212402310#6 -212402310#5 -212402310#4 -212402345#0 212402327#7 -212402329 212402302#5 212402302#6 460213377#2 -212691505#4 -212691505#3 -212691505#2 212691480#0 212691480#1 212691480#3 212691480#4 446514658#0 446514658#1 446514658#2 446514658#3 212402300#1 212402300#2 446514652#0 446514652#1 446514652#2 446514652#3 446514652#4 460213377#3 212402307#0 212402307#1 212402307#2 212402307#3 212402307#4 212402307#5 -212402322#8 446823214#0 212402358#0 212402358#1 -212402358#1 -212402358#0 -446823214#0 -212402322#7 -212402310#6 -212402396#2 -212402396#1 -212402396#0 212402328#4 -212402385#1 212402400#2 -E0 -E3 212402394#0 212402394#1 212402394#2 212402394#3 212402394#5 -212402367#3 -212402367#1 -212402367#0 212402292#5 212402292#6 -137614083#10 -137614083#9 -137614083#8 -137614083#7 -137614083#6 -137614083#5 -137614083#4 -137614083#2 -212682831#3 -212682831#2 212682831#2 212682831#3 137614083#2 137614083#4 137614083#5 137614083#6 137614083#7 137614083#8 137614083#9 137614083#10 452398504#0 452398504#1 452398496#0 452398496#1 460214435#0 460214435#1 460214435#2 460214435#3 460213970#8 460213970#9 460213970#10 460213970#0 460213970#1 460213970#2 460213970#3 -443957055#12 -443957055#11 212691506#0 212691506#1 212691506#2 212691506#3 212691506#4 212691506#5 -212691506#5 -212691506#4 -212691506#3 -212691506#2 -212691506#1 -212691476 453772980#3 460213970#3 460213970#4 460213971#0 460213971#1 444292022#0 444292022#1 444292022#2 444292022#3 444292022#4 444292022#5 -452398496#1 -452398496#0 -452398504#1 -452398504#0 -137614083#10 -137614083#9 -137614083#8 138074610#0 138074610#2 138074610#3 138074610#4 -212682834#6 -212682805#1 -212682805#0 212706333#0 212706333#1 212706333#3 212706333#4 444291994#0 444291994#1 444291994#2 444291989#0 444291989#1 -444291984#5 -444291984#4 212706370#0 212706363#0 212706363#1 212706363#2 -444291978#2 -444291978#0 235445423#0 235445423#1 235445423#2 235445423#3 235445423#4 235445423#5 235445423#6 -444293150#1 212682782#0 212682782#1 212682841#0 212682841#2 -212682803#3 -212682803#2 -212682803#1 -212682803#0 212701270#0 212701270#1 212701270#2 212701270#3 446514653 212701295#7 -446514662#3 -446514662#1"/>
  </vehicle>
  <vehicle id="veh9" depart="9.0" type="electric12">
    <param key="device.battery.chargeLevel" value="67000"/>
    <route edges="-212682802#1 212682802#1 212682837#3 -212682839#2 -212682790#0 444292022#3 444292022#4 444292022#5 -452398496#1 -212402325#1 -212402325#0 -212402298#2 -212402313 453772985#0 -212402394#1 -453772983#0 453772983#0 212402394#1 212402394#2 212402394#3 212402394#5 -212402367#3 -212402367#1 -212402367#0 212402292#5 212402292#6 -137614083#10 -137614083#9 -137614083#8 -137614083#7 -137614083#6 -137614083#5 -137614083#4 -444292008#4 -444292008#3 -444292008#2 -444292008#1 444292008#1 444292008#2 444292008#3 444292008#4 137614083#4 137614083#5 137614083#6 137614083#7 137614083#8 137614083#9 137614083#10 452398504#0 452398504#1 452398496#0 452398496#1 460214435#0 460214435#1 460214435#2 460214435#3 460213970#8 460213970#9 460213970#10 460213970#0 460213970#1 460213970#2 460213970#3 -443957055#12 -443957055#11 -443957055#10 -443957055#9 443957055#9 443957055#10 443957055#11 443957055#12 460213970#4 460213970#5 460213970#6 460213970#7 460213970#8 138074615#0 E2 138074615#3 138074615#5 138074615#7 138074615#9 138074615#10 138074615#11 138074615#12 138074615#13 138074615#14 138074615#15 138074615#16 138074615#18 138074615#20 -460207321#0 460207322#0 460207322#2 417805171#0 417805171#1 263520336#5 212402342 212402393#2 212402393#3 -212402393#3 -212402393#2 -212402393#1 212402327#2 -212402322#5 -212402322#4 212402328#2 212402328#4 -212402385#1 212402400#2 -E0 -E3 212402394#0 212402394#1 212402394#2 212402394#3 212402394#5 -212402367#3 -212402367#1 -212402367#0 -212402334 -212402395#2 -212402395#1 -212402395#0 212402395#0 212402395#1 212402395#2 212402334 212402367#0 212402367#1 212402367#3 -212402394#5 -212402394#3 212402394#3 212402394#5 -212402367#3 -212402367#1 -212402367#0 -212402292#3 -212402292#2 -212402368#1 212402299#4 212402381#1 1181466352#0 1181466352#1 1181466352#2 212402303#4 -689087845 453772978#4 -713153658 212402378#0 212402378#1 138074615#10 138074615#11 138074615#12 138074615#13 138074615#14 138074615#15 138074615#16 138074615#18 138074615#20 -460207321#0 460207322#0 460207322#2 212410116 659351467#1 659351467#2 659351467#3 659351467#4 659351467#5 659351467#6 659351467#7 659351467#8 659351467#9 -659351467#9 -659351467#8 -659351467#7 -659351467#6 -659351467#5 -659351467#4 -659351467#3 -659351467#2 -659351467#1 -659351467#0 -212410130#0 417805171#1 263520336#5 263520336#6 -460210276 212402327#1 212402327#2 -212402322#5 -212402322#4 212402328#2 212402328#4 -212402385#1 212402400#2 -E0 212402332#0 -212402399#1 -212402399#0 212402298#0 212402298#1 212402298#2 212402325#0 212402325#1 452398496#1 444293146#0 444293146#1 444293146#2 -212682837#3 -212682837#2 -444293148#2 212682790#2 444293147#1 444293149 444292031 444292035 212682793 443957055#7 443957055#9 443957055#10 443957055#11 443957055#12 460213970#4 460213970#5 460213970#6 460213970#7 460213970#8 138074615#0 E2 138074615#3 138074615#5 138074615#7 138074615#9 138074615#10 138074615#11 138074615#12 138074615#13 138074615#14 138074615#15 138074615#16 138074615#18 138074615#20 -138074615#20"/>
  </vehicle>
  <vehicle id="veh10" depart="10.0" type="electric12">
    <param key="device.battery.chargeLevel" value="67496"/>